xflr5 v6.10.04

 Calculated polar for: HAM-STD HS1-712 AIRFOIL

 1 1 Reynolds number fixed          Mach number fixed         

 xtrf =   1.000 (top)        1.000 (bottom)
 Mach =   0.030     Re =     0.250 e 6     Ncrit =   9.000

  alpha     CL        CD       CDp       Cm    Top Xtr Bot Xtr   Cpmin    Chinge    XCp    
 ------- -------- --------- --------- -------- ------- ------- -------- --------- ---------
 -15.000  -0.4225   0.18037   0.17672  -0.0255  1.0000  0.0278  -1.5935   0.0000   0.1669
 -14.750  -0.4198   0.17764   0.17401  -0.0262  1.0000  0.0284  -1.6404   0.0000   0.1652
 -14.500  -0.4157   0.17510   0.17149  -0.0263  1.0000  0.0286  -1.6328   0.0000   0.1646
 -14.250  -0.4110   0.17281   0.16922  -0.0263  1.0000  0.0291  -1.6043   0.0000   0.1643
 -14.000  -0.4073   0.17036   0.16678  -0.0265  1.0000  0.0298  -1.6013   0.0000   0.1636
 -13.750  -0.4064   0.16743   0.16387  -0.0274  1.0000  0.0304  -1.6649   0.0000   0.1619
 -13.500  -0.4017   0.16504   0.16150  -0.0271  1.0000  0.0307  -1.6268   0.0000   0.1622
 -13.250  -0.3978   0.16269   0.15917  -0.0271  1.0000  0.0314  -1.6106   0.0000   0.1621
 -13.000  -0.3959   0.15999   0.15649  -0.0274  1.0000  0.0322  -1.6439   0.0000   0.1613
 -12.750  -0.3947   0.15711   0.15364  -0.0277  1.0000  0.0325  -1.6802   0.0000   0.1607
 -12.500  -0.3906   0.15480   0.15135  -0.0274  1.0000  0.0330  -1.6477   0.0000   0.1613
 -12.250  -0.3881   0.15227   0.14884  -0.0273  1.0000  0.0337  -1.6466   0.0000   0.1614
 -12.000  -0.3889   0.14931   0.14591  -0.0279  1.0000  0.0344  -1.7073   0.0000   0.1607
 -11.750  -0.3872   0.14658   0.14320  -0.0277  1.0000  0.0347  -1.7101   0.0000   0.1613
 -11.500  -0.3842   0.14421   0.14085  -0.0273  1.0000  0.0352  -1.6821   0.0000   0.1623
 -11.250  -0.3832   0.14159   0.13826  -0.0271  1.0000  0.0359  -1.6886   0.0000   0.1630
 -11.000  -0.3891   0.13822   0.13492  -0.0281  1.0000  0.0366  -1.7978   0.0000   0.1624
 -10.750  -0.3846   0.13593   0.13266  -0.0270  1.0000  0.0369  -1.7445   0.0000   0.1646
 -10.500  -0.3834   0.13353   0.13028  -0.0265  1.0000  0.0377  -1.7338   0.0000   0.1662
 -10.250  -0.3879   0.13047   0.12726  -0.0268  1.0000  0.0386  -1.8072   0.0000   0.1669
 -10.000  -0.3893   0.12772   0.12453  -0.0263  1.0000  0.0390  -1.8226   0.0000   0.1688
  -9.750  -0.3885   0.12542   0.12227  -0.0255  1.0000  0.0396  -1.8006   0.0000   0.1714
  -9.500  -0.3919   0.12274   0.11962  -0.0251  1.0000  0.0405  -1.8306   0.0000   0.1735
  -9.250  -0.4038   0.11928   0.11621  -0.0255  1.0000  0.0410  -1.9536   0.0000   0.1749
  -9.000  -0.4017   0.11718   0.11414  -0.0240  1.0000  0.0414  -1.8995   0.0000   0.1788
  -8.750  -0.4047   0.11485   0.11184  -0.0230  1.0000  0.0421  -1.8968   0.0000   0.1822
  -8.500  -0.4137   0.11210   0.10912  -0.0225  1.0000  0.0429  -1.9512   0.0000   0.1855
  -8.250  -0.4108   0.10784   0.10488  -0.0257  0.9979  0.0436  -2.0040   0.0000   0.1774
  -8.000  -0.3999   0.10435   0.10139  -0.0286  0.9952  0.0448  -1.9755   0.0000   0.1687
  -7.750  -0.4020   0.09963   0.09669  -0.0331  0.9913  0.0459  -2.0723   0.0000   0.1582
  -7.500  -0.3903   0.09615   0.09321  -0.0361  0.9870  0.0473  -2.0325   0.0000   0.1482
  -7.250  -0.3774   0.09086   0.08792  -0.0426  0.9821  0.0488  -2.0719   0.0000   0.1278
  -7.000  -0.3605   0.08439   0.08143  -0.0517  0.9766  0.0510  -2.1461   0.0000   0.0971
  -6.250  -0.2656   0.03453   0.02931  -0.1041  0.9670  0.0412  -3.6217   0.0000  -0.1579
  -6.000  -0.2316   0.03109   0.02532  -0.1071  0.9636  0.0418  -3.5487   0.0000  -0.2300
  -5.750  -0.1897   0.02779   0.02111  -0.1110  0.9623  0.0432  -3.4746   0.0000  -0.3563
  -5.500  -0.1501   0.02645   0.01960  -0.1139  0.9608  0.0451  -3.2842   0.0000  -0.5342
  -5.250  -0.1155   0.02531   0.01827  -0.1156  0.9574  0.0470  -3.1124   0.0000  -0.7827
  -5.000  -0.0777   0.02434   0.01715  -0.1179  0.9549  0.0495  -2.9242   0.0000  -1.3117
  -4.750  -0.0369   0.02350   0.01617  -0.1207  0.9533  0.0526  -2.7378   0.0000  -3.1098
  -4.500  -0.0032   0.02283   0.01537  -0.1220  0.9490  0.0559  -2.5760   0.0000  -39.0250
  -4.250   0.0359   0.02214   0.01466  -0.1244  0.9468  0.0599  -2.4009   0.0000   3.7984
  -4.000   0.0769   0.02147   0.01399  -0.1273  0.9454  0.0651  -2.2206   0.0000   1.9393
  -3.750   0.1092   0.02094   0.01349  -0.1283  0.9402  0.0703  -2.0670   0.0000   1.4469
  -3.500   0.1503   0.02038   0.01295  -0.1311  0.9382  0.0769  -1.8945   0.0000   1.1373
  -3.250   0.1847   0.01989   0.01250  -0.1325  0.9332  0.0833  -1.7394   0.0000   0.9784
  -3.000   0.2248   0.01934   0.01200  -0.1351  0.9306  0.0912  -1.5742   0.0000   0.8589
  -2.750   0.2670   0.01877   0.01150  -0.1381  0.9292  0.1024  -1.4134   0.0000   0.7733
  -2.500   0.2989   0.01833   0.01115  -0.1389  0.9230  0.1193  -1.2825   0.0000   0.7195
  -2.250   0.3412   0.01769   0.01071  -0.1420  0.9213  0.1562  -1.1379   0.0000   0.6696
  -2.000   0.3737   0.01734   0.01043  -0.1428  0.9151  0.1865  -1.0163   0.0000   0.6347
  -1.750   0.4156   0.01682   0.00994  -0.1456  0.9130  0.2131  -0.8825   0.0000   0.6022
  -1.500   0.4484   0.01640   0.00957  -0.1464  0.9065  0.2336  -0.7726   0.0000   0.5778
  -1.250   0.4912   0.01574   0.00898  -0.1494  0.9045  0.2571  -0.7029   0.0000   0.5549
  -1.000   0.5246   0.01522   0.00856  -0.1504  0.8981  0.2805  -0.7319   0.0000   0.5368
  -0.750   0.5683   0.01448   0.00800  -0.1537  0.8959  0.3245  -0.7677   0.0000   0.5202
  -0.250   0.6169   0.01223   0.00754  -0.1508  0.8821  0.9296  -0.8193   0.0000   0.4934
   0.000   0.6491   0.01169   0.00692  -0.1512  0.8732  1.0000  -0.8501   0.0000   0.4816
   0.250   0.6844   0.01135   0.00648  -0.1525  0.8638  1.0000  -0.8840   0.0000   0.4711
   0.500   0.7218   0.01100   0.00603  -0.1541  0.8530  1.0000  -0.9204   0.0000   0.4615
   0.750   0.7583   0.01073   0.00566  -0.1557  0.8396  1.0000  -0.9575   0.0000   0.4530
   1.000   0.7972   0.01050   0.00530  -0.1578  0.8263  1.0000  -0.9976   0.0000   0.4453
   1.250   0.8308   0.01043   0.00513  -0.1588  0.8095  1.0000  -1.0354   0.0000   0.4383
   1.500   0.8650   0.01043   0.00499  -0.1600  0.7934  1.0000  -1.0746   0.0000   0.4318
   1.750   0.8958   0.01053   0.00497  -0.1604  0.7760  1.0000  -1.1122   0.0000   0.4256
   2.000   0.9182   0.01067   0.00507  -0.1591  0.7498  1.0000  -1.1484   0.0000   0.4195
   2.250   0.9495   0.01077   0.00497  -0.1596  0.7310  1.0000  -1.2185   0.0000   0.4140
   2.500   0.9785   0.01102   0.00503  -0.1596  0.7117  1.0000  -1.2865   0.0000   0.4088
   2.750   1.0052   0.01131   0.00519  -0.1593  0.6922  1.0000  -1.3525   0.0000   0.4039
   3.000   1.0304   0.01158   0.00538  -0.1586  0.6725  1.0000  -1.4172   0.0000   0.3991
   3.250   1.0547   0.01183   0.00555  -0.1577  0.6524  1.0000  -1.4817   0.0000   0.3944
   3.500   1.0781   0.01209   0.00572  -0.1567  0.6310  1.0000  -1.5457   0.0000   0.3899
   3.750   1.1005   0.01238   0.00591  -0.1554  0.6075  1.0000  -1.6090   0.0000   0.3855
   4.000   1.1214   0.01269   0.00612  -0.1538  0.5797  1.0000  -1.6709   0.0000   0.3811
   4.250   1.1411   0.01309   0.00636  -0.1520  0.5504  1.0000  -1.7318   0.0000   0.3769
   4.500   1.1589   0.01351   0.00663  -0.1499  0.5130  1.0000  -1.7907   0.0000   0.3726
   4.750   1.1753   0.01404   0.00695  -0.1474  0.4772  1.0000  -1.8480   0.0000   0.3685
   5.000   1.1918   0.01462   0.00733  -0.1451  0.4465  1.0000  -1.9058   0.0000   0.3645
   5.250   1.2097   0.01517   0.00773  -0.1431  0.4208  1.0000  -1.9656   0.0000   0.3607
   5.500   1.2281   0.01570   0.00815  -0.1413  0.4003  1.0000  -2.0265   0.0000   0.3571
   5.750   1.2472   0.01621   0.00856  -0.1396  0.3835  1.0000  -2.0887   0.0000   0.3537
   6.000   1.2661   0.01673   0.00900  -0.1379  0.3700  1.0000  -2.1509   0.0000   0.3504
   6.250   1.2844   0.01727   0.00946  -0.1361  0.3583  1.0000  -2.2126   0.0000   0.3471
   6.500   1.3030   0.01782   0.00995  -0.1344  0.3478  1.0000  -2.2752   0.0000   0.3439
   6.750   1.3227   0.01837   0.01047  -0.1329  0.3384  1.0000  -2.3394   0.0000   0.3409
   7.000   1.3429   0.01887   0.01097  -0.1315  0.3295  1.0000  -2.4044   0.0000   0.3381
   7.250   1.3626   0.01933   0.01146  -0.1300  0.3202  1.0000  -2.4692   0.0000   0.3352
   7.500   1.3816   0.01976   0.01193  -0.1284  0.3104  1.0000  -2.5334   0.0000   0.3324
   7.750   1.4001   0.02019   0.01240  -0.1267  0.3002  1.0000  -2.5971   0.0000   0.3296
   8.000   1.4180   0.02064   0.01288  -0.1249  0.2902  1.0000  -2.6600   0.0000   0.3268
   8.250   1.4351   0.02115   0.01340  -0.1230  0.2800  1.0000  -2.7220   0.0000   0.3241
   8.500   1.4520   0.02169   0.01396  -0.1211  0.2697  1.0000  -2.7833   0.0000   0.3214
   8.750   1.4688   0.02226   0.01456  -0.1192  0.2589  1.0000  -2.8461   0.0000   0.3188
   9.000   1.4851   0.02286   0.01519  -0.1173  0.2480  1.0000  -2.9087   0.0000   0.3162
   9.250   1.5006   0.02352   0.01586  -0.1153  0.2367  1.0000  -2.9698   0.0000   0.3137
   9.500   1.5149   0.02425   0.01660  -0.1132  0.2252  1.0000  -3.0587   0.0000   0.3112
   9.750   1.5292   0.02500   0.01737  -0.1111  0.2125  1.0000  -3.1709   0.0000   0.3087
  10.000   1.5417   0.02587   0.01823  -0.1088  0.1992  1.0000  -3.2808   0.0000   0.3062
  10.250   1.5537   0.02681   0.01916  -0.1064  0.1849  1.0000  -3.3920   0.0000   0.3037
  10.500   1.5638   0.02790   0.02021  -0.1039  0.1712  1.0000  -3.4999   0.0000   0.3013
  10.750   1.5729   0.02908   0.02137  -0.1013  0.1579  1.0000  -3.6065   0.0000   0.2988
  11.000   1.5815   0.03033   0.02261  -0.0987  0.1464  1.0000  -3.7146   0.0000   0.2964
  11.250   1.5895   0.03166   0.02393  -0.0962  0.1372  1.0000  -3.8316   0.0000   0.2940
  11.500   1.5972   0.03303   0.02532  -0.0936  0.1301  1.0000  -3.9486   0.0000   0.2917
  11.750   1.6048   0.03444   0.02675  -0.0912  0.1243  1.0000  -4.0663   0.0000   0.2895
  12.000   1.6116   0.03594   0.02827  -0.0888  0.1196  1.0000  -4.1824   0.0000   0.2873
  12.250   1.6192   0.03741   0.02980  -0.0866  0.1153  1.0000  -4.3048   0.0000   0.2852
  12.500   1.6267   0.03893   0.03138  -0.0845  0.1115  1.0000  -4.4479   0.0000   0.2832
  12.750   1.6319   0.04065   0.03312  -0.0823  0.1082  1.0000  -4.5839   0.0000   0.2812
  13.000   1.6399   0.04220   0.03478  -0.0805  0.1043  1.0000  -4.7325   0.0000   0.2794
  13.250   1.6453   0.04400   0.03665  -0.0786  0.1011  1.0000  -4.8716   0.0000   0.2776
  13.500   1.6506   0.04588   0.03859  -0.0768  0.0980  1.0000  -5.0111   0.0000   0.2758
  13.750   1.6560   0.04781   0.04062  -0.0752  0.0948  1.0000  -5.1513   0.0000   0.2742
  14.000   1.6589   0.05000   0.04285  -0.0736  0.0920  1.0000  -5.2822   0.0000   0.2726
  14.250   1.6637   0.05209   0.04507  -0.0722  0.0887  1.0000  -5.4213   0.0000   0.2711
  14.500   1.6671   0.05439   0.04748  -0.0709  0.0854  1.0000  -5.5540   0.0000   0.2697
  14.750   1.6689   0.05692   0.05010  -0.0697  0.0823  1.0000  -5.6804   0.0000   0.2684
  15.000   1.6686   0.05973   0.05294  -0.0686  0.0794  1.0000  -5.7974   0.0000   0.2672


