xflr5 v6.10.04

 Calculated polar for: HAM-STD HS1-712 AIRFOIL

 1 1 Reynolds number fixed          Mach number fixed         

 xtrf =   1.000 (top)        1.000 (bottom)
 Mach =   0.030     Re =     0.350 e 6     Ncrit =   9.000

  alpha     CL        CD       CDp       Cm    Top Xtr Bot Xtr   Cpmin    Chinge    XCp    
 ------- -------- --------- --------- -------- ------- ------- -------- --------- ---------
 -15.000  -0.4278   0.17990   0.17682  -0.0239  1.0000  0.0221  -1.6400   0.0000   0.1715
 -14.750  -0.4244   0.17724   0.17418  -0.0244  1.0000  0.0227  -1.6670   0.0000   0.1703
 -14.500  -0.4223   0.17422   0.17118  -0.0250  1.0000  0.0230  -1.7242   0.0000   0.1689
 -14.250  -0.4173   0.17206   0.16903  -0.0249  1.0000  0.0232  -1.6766   0.0000   0.1689
 -14.000  -0.4132   0.16974   0.16673  -0.0250  1.0000  0.0237  -1.6551   0.0000   0.1686
 -13.750  -0.4099   0.16719   0.16420  -0.0252  1.0000  0.0242  -1.6576   0.0000   0.1680
 -13.250  -0.4053   0.16159   0.15863  -0.0257  1.0000  0.0249  -1.7048   0.0000   0.1668
 -13.000  -0.4015   0.15929   0.15635  -0.0256  1.0000  0.0253  -1.6798   0.0000   0.1670
 -12.750  -0.3988   0.15676   0.15384  -0.0257  1.0000  0.0260  -1.6836   0.0000   0.1668
 -12.500  -0.4004   0.15329   0.15040  -0.0265  1.0000  0.0266  -1.7912   0.0000   0.1654
 -12.250  -0.3957   0.15117   0.14829  -0.0259  1.0000  0.0269  -1.7297   0.0000   0.1666
 -12.000  -0.3929   0.14882   0.14596  -0.0257  1.0000  0.0274  -1.7099   0.0000   0.1671
 -11.750  -0.3927   0.14593   0.14308  -0.0259  1.0000  0.0282  -1.7478   0.0000   0.1670
 -11.500  -0.3941   0.14272   0.13991  -0.0262  1.0000  0.0286  -1.8064   0.0000   0.1670
 -11.250  -0.3910   0.14053   0.13773  -0.0256  1.0000  0.0289  -1.7620   0.0000   0.1685
 -11.000  -0.3898   0.13807   0.13530  -0.0253  1.0000  0.0295  -1.7514   0.0000   0.1696
 -10.750  -0.3927   0.13490   0.13215  -0.0256  1.0000  0.0303  -1.8194   0.0000   0.1699
 -10.500  -0.3949   0.13188   0.12916  -0.0255  1.0000  0.0305  -1.8653   0.0000   0.1710
 -10.250  -0.3931   0.12971   0.12701  -0.0247  1.0000  0.0309  -1.8304   0.0000   0.1733
 -10.000  -0.3918   0.12701   0.12433  -0.0248  0.9998  0.0315  -1.8325   0.0000   0.1733
  -9.750  -0.3859   0.12143   0.11875  -0.0301  0.9979  0.0325  -1.9694   0.0000   0.1585
  -9.500  -0.3701   0.11837   0.11569  -0.0324  0.9966  0.0330  -1.8859   0.0000   0.1489
  -9.250  -0.3639   0.11362   0.11094  -0.0366  0.9941  0.0343  -1.9638   0.0000   0.1360
  -9.000  -0.3539   0.10953   0.10686  -0.0398  0.9922  0.0348  -1.9700   0.0000   0.1240
  -8.750  -0.3426   0.10599   0.10332  -0.0426  0.9900  0.0356  -1.9438   0.0000   0.1123
  -8.500  -0.3477   0.09945   0.09680  -0.0490  0.9864  0.0366  -2.1638   0.0000   0.0961
  -8.250  -0.3335   0.09689   0.09424  -0.0501  0.9836  0.0370  -2.0607   0.0000   0.0868
  -8.000  -0.3262   0.09334   0.09069  -0.0528  0.9806  0.0377  -2.0513   0.0000   0.0754
  -7.250  -0.3209   0.03485   0.03065  -0.1099  0.9628  0.0298  -4.2874   0.0000  -0.1086
  -7.000  -0.2849   0.02869   0.02345  -0.1154  0.9617  0.0307  -4.3453   0.0000  -0.1731
  -6.750  -0.2477   0.02684   0.02129  -0.1184  0.9607  0.0317  -4.1557   0.0000  -0.2476
  -6.500  -0.2161   0.02530   0.01941  -0.1199  0.9578  0.0330  -3.9836   0.0000  -0.3264
  -6.250  -0.1816   0.02385   0.01748  -0.1218  0.9557  0.0346  -3.8154   0.0000  -0.4452
  -6.000  -0.1454   0.02287   0.01639  -0.1240  0.9544  0.0361  -3.5957   0.0000  -0.6319
  -5.750  -0.1070   0.02185   0.01519  -0.1265  0.9534  0.0381  -3.3888   0.0000  -0.9700
  -5.500  -0.0743   0.02096   0.01417  -0.1277  0.9506  0.0401  -3.2007   0.0000  -1.5205
  -5.250  -0.0400   0.02011   0.01324  -0.1293  0.9482  0.0425  -3.0112   0.0000  -3.0700
  -5.000  -0.0029   0.01929   0.01237  -0.1314  0.9469  0.0452  -2.8208   0.0000  -45.4578
  -4.750   0.0349   0.01858   0.01169  -0.1337  0.9460  0.0483  -2.6346   0.0000   4.1754
  -4.500   0.0735   0.01805   0.01121  -0.1362  0.9452  0.0518  -2.4403   0.0000   2.1420
  -4.250   0.1015   0.01772   0.01086  -0.1362  0.9402  0.0556  -2.2832   0.0000   1.6198
  -4.000   0.1403   0.01718   0.01034  -0.1386  0.9387  0.0606  -2.1044   0.0000   1.2565
  -3.750   0.1811   0.01660   0.00977  -0.1414  0.9377  0.0663  -1.9260   0.0000   1.0439
  -3.500   0.2119   0.01620   0.00943  -0.1420  0.9328  0.0712  -1.7723   0.0000   0.9306
  -3.250   0.2509   0.01573   0.00897  -0.1444  0.9310  0.0774  -1.6033   0.0000   0.8332
  -3.000   0.2913   0.01522   0.00852  -0.1471  0.9299  0.0850  -1.4415   0.0000   0.7610
  -2.750   0.3232   0.01484   0.00821  -0.1479  0.9254  0.0961  -1.3035   0.0000   0.7125
  -2.500   0.3625   0.01426   0.00778  -0.1504  0.9232  0.1232  -1.1607   0.0000   0.6685
  -2.250   0.4046   0.01370   0.00735  -0.1534  0.9220  0.1612  -1.0184   0.0000   0.6319
  -2.000   0.4482   0.01318   0.00689  -0.1567  0.9209  0.1883  -0.8804   0.0000   0.6016
  -1.750   0.4785   0.01285   0.00660  -0.1569  0.9144  0.2069  -0.7740   0.0000   0.5795
  -1.500   0.5134   0.01244   0.00622  -0.1582  0.9094  0.2249  -0.7087   0.0000   0.5592
  -1.250   0.5499   0.01199   0.00581  -0.1599  0.9045  0.2436  -0.7397   0.0000   0.5413
  -0.750   0.6140   0.01118   0.00515  -0.1613  0.8874  0.2877  -0.7979   0.0000   0.5123
  -0.500   0.6481   0.01070   0.00487  -0.1626  0.8769  0.3493  -0.8290   0.0000   0.5002
  -0.250   0.6814   0.00967   0.00490  -0.1641  0.8647  0.7026  -0.8606   0.0000   0.4898
   0.000   0.6964   0.00896   0.00468  -0.1601  0.8516  0.9266  -0.8823   0.0000   0.4784
   0.250   0.7276   0.00862   0.00423  -0.1604  0.8353  1.0000  -0.9143   0.0000   0.4687
   0.500   0.7615   0.00858   0.00405  -0.1615  0.8177  1.0000  -0.9490   0.0000   0.4601
   0.750   0.7927   0.00864   0.00395  -0.1620  0.7978  1.0000  -0.9831   0.0000   0.4521
   1.000   0.8239   0.00877   0.00391  -0.1626  0.7804  1.0000  -1.0184   0.0000   0.4448
   1.250   0.8476   0.00890   0.00398  -0.1616  0.7484  1.0000  -1.0493   0.0000   0.4377
   1.500   0.8754   0.00910   0.00394  -0.1614  0.7274  1.0000  -1.0844   0.0000   0.4311
   1.750   0.9026   0.00938   0.00403  -0.1611  0.7086  1.0000  -1.1196   0.0000   0.4250
   2.000   0.9293   0.00964   0.00418  -0.1608  0.6911  1.0000  -1.1741   0.0000   0.4193
   2.250   0.9554   0.00987   0.00432  -0.1604  0.6738  1.0000  -1.2382   0.0000   0.4138
   2.500   0.9809   0.01010   0.00445  -0.1598  0.6567  1.0000  -1.3025   0.0000   0.4086
   2.750   1.0058   0.01032   0.00460  -0.1591  0.6383  1.0000  -1.3667   0.0000   0.4036
   3.000   1.0300   0.01056   0.00475  -0.1583  0.6184  1.0000  -1.4308   0.0000   0.3988
   3.250   1.0533   0.01082   0.00492  -0.1573  0.5959  1.0000  -1.4945   0.0000   0.3941
   3.500   1.0752   0.01114   0.00510  -0.1559  0.5701  1.0000  -1.5569   0.0000   0.3895
   3.750   1.0967   0.01147   0.00531  -0.1545  0.5402  1.0000  -1.6195   0.0000   0.3851
   4.000   1.1153   0.01192   0.00556  -0.1525  0.5017  1.0000  -1.6788   0.0000   0.3807
   4.250   1.1328   0.01245   0.00587  -0.1504  0.4633  1.0000  -1.7373   0.0000   0.3764
   4.500   1.1512   0.01299   0.00622  -0.1485  0.4298  1.0000  -1.7970   0.0000   0.3723
   4.750   1.1704   0.01350   0.00657  -0.1468  0.4029  1.0000  -1.8583   0.0000   0.3684
   5.000   1.1904   0.01397   0.00693  -0.1453  0.3819  1.0000  -1.9211   0.0000   0.3647
   5.250   1.2106   0.01444   0.00729  -0.1438  0.3665  1.0000  -1.9845   0.0000   0.3611
   5.500   1.2307   0.01491   0.00768  -0.1423  0.3551  1.0000  -2.0484   0.0000   0.3577
   5.750   1.2503   0.01538   0.00808  -0.1407  0.3455  1.0000  -2.1118   0.0000   0.3543
   6.000   1.2701   0.01582   0.00850  -0.1391  0.3365  1.0000  -2.1759   0.0000   0.3510
   6.250   1.2907   0.01622   0.00889  -0.1378  0.3277  1.0000  -2.2414   0.0000   0.3479
   6.500   1.3117   0.01658   0.00927  -0.1365  0.3191  1.0000  -2.3081   0.0000   0.3448
   6.750   1.3329   0.01692   0.00963  -0.1352  0.3099  1.0000  -2.3752   0.0000   0.3419
   7.000   1.3538   0.01726   0.00999  -0.1339  0.3003  1.0000  -2.4424   0.0000   0.3390
   7.250   1.3740   0.01764   0.01037  -0.1325  0.2901  1.0000  -2.5089   0.0000   0.3362
   7.500   1.3935   0.01806   0.01077  -0.1310  0.2800  1.0000  -2.5745   0.0000   0.3334
   7.750   1.4125   0.01851   0.01122  -0.1294  0.2695  1.0000  -2.6395   0.0000   0.3307
   8.000   1.4315   0.01898   0.01169  -0.1278  0.2592  1.0000  -2.7044   0.0000   0.3280
   8.250   1.4500   0.01947   0.01219  -0.1262  0.2485  1.0000  -2.7698   0.0000   0.3254
   8.500   1.4680   0.02000   0.01271  -0.1245  0.2375  1.0000  -2.8358   0.0000   0.3228
   8.750   1.4852   0.02058   0.01328  -0.1227  0.2261  1.0000  -2.9005   0.0000   0.3202
   9.000   1.5019   0.02119   0.01388  -0.1209  0.2143  1.0000  -2.9641   0.0000   0.3177
   9.250   1.5181   0.02184   0.01452  -0.1190  0.2015  1.0000  -3.0266   0.0000   0.3152
   9.500   1.5328   0.02259   0.01524  -0.1169  0.1881  1.0000  -3.1152   0.0000   0.3127
   9.750   1.5467   0.02340   0.01601  -0.1147  0.1737  1.0000  -3.2284   0.0000   0.3102
  10.000   1.5598   0.02428   0.01685  -0.1125  0.1593  1.0000  -3.3414   0.0000   0.3077
  10.250   1.5718   0.02525   0.01778  -0.1101  0.1452  1.0000  -3.4547   0.0000   0.3053
  10.500   1.5825   0.02631   0.01880  -0.1076  0.1330  1.0000  -3.5656   0.0000   0.3028
  10.750   1.5933   0.02739   0.01986  -0.1052  0.1230  1.0000  -3.6838   0.0000   0.3004
  11.000   1.6036   0.02851   0.02098  -0.1028  0.1157  1.0000  -3.8096   0.0000   0.2981
  11.250   1.6140   0.02963   0.02212  -0.1004  0.1101  1.0000  -3.9370   0.0000   0.2958
  11.500   1.6241   0.03079   0.02331  -0.0981  0.1056  1.0000  -4.0651   0.0000   0.2935
  11.750   1.6333   0.03203   0.02458  -0.0958  0.1018  1.0000  -4.1915   0.0000   0.2913
  12.000   1.6428   0.03328   0.02588  -0.0936  0.0983  1.0000  -4.3203   0.0000   0.2892
  12.250   1.6519   0.03458   0.02724  -0.0915  0.0953  1.0000  -4.4722   0.0000   0.2871
  12.500   1.6591   0.03605   0.02874  -0.0892  0.0926  1.0000  -4.6191   0.0000   0.2850
  12.750   1.6686   0.03738   0.03017  -0.0873  0.0897  1.0000  -4.7764   0.0000   0.2831
  13.000   1.6756   0.03894   0.03178  -0.0853  0.0870  1.0000  -4.9256   0.0000   0.2812
  13.250   1.6840   0.04043   0.03337  -0.0835  0.0841  1.0000  -5.0819   0.0000   0.2794
  13.500   1.6908   0.04211   0.03512  -0.0817  0.0815  1.0000  -5.2328   0.0000   0.2776
  13.750   1.6946   0.04410   0.03715  -0.0798  0.0791  1.0000  -5.3716   0.0000   0.2759
  14.000   1.6977   0.04623   0.03935  -0.0780  0.0767  1.0000  -5.5067   0.0000   0.2742
  14.250   1.6975   0.04875   0.04192  -0.0761  0.0745  1.0000  -5.6261   0.0000   0.2726
  14.500   1.6945   0.05160   0.04481  -0.0743  0.0725  1.0000  -5.7326   0.0000   0.2710
  14.750   1.6951   0.05424   0.04756  -0.0729  0.0699  1.0000  -5.8549   0.0000   0.2696
  15.000   1.6959   0.05694   0.05039  -0.0717  0.0672  1.0000  -5.9788   0.0000   0.2684


