xflr5 v6.10.04

 Calculated polar for: HAM-STD HS1-712 AIRFOIL

 1 1 Reynolds number fixed          Mach number fixed         

 xtrf =   1.000 (top)        1.000 (bottom)
 Mach =   0.030     Re =     0.200 e 6     Ncrit =   9.000

  alpha     CL        CD       CDp       Cm    Top Xtr Bot Xtr   Cpmin    Chinge    XCp    
 ------- -------- --------- --------- -------- ------- ------- -------- --------- ---------
 -14.750  -0.4161   0.17813   0.17406  -0.0269  1.0000  0.0327  -1.5884   0.0000   0.1628
 -14.500  -0.4114   0.17578   0.17173  -0.0270  1.0000  0.0334  -1.5708   0.0000   0.1621
 -14.250  -0.4082   0.17326   0.16923  -0.0275  1.0000  0.0342  -1.5871   0.0000   0.1609
 -14.000  -0.4057   0.17057   0.16656  -0.0279  1.0000  0.0346  -1.6108   0.0000   0.1598
 -13.750  -0.4008   0.16822   0.16423  -0.0278  1.0000  0.0352  -1.5765   0.0000   0.1597
 -13.500  -0.3975   0.16573   0.16176  -0.0280  1.0000  0.0360  -1.5808   0.0000   0.1591
 -13.250  -0.3973   0.16292   0.15898  -0.0288  1.0000  0.0366  -1.6488   0.0000   0.1576
 -13.000  -0.3925   0.16043   0.15651  -0.0285  1.0000  0.0369  -1.6179   0.0000   0.1580
 -12.750  -0.3889   0.15800   0.15411  -0.0283  1.0000  0.0376  -1.6046   0.0000   0.1580
 -12.500  -0.3873   0.15536   0.15149  -0.0286  1.0000  0.0384  -1.6265   0.0000   0.1576
 -12.250  -0.3876   0.15248   0.14864  -0.0290  1.0000  0.0389  -1.6762   0.0000   0.1569
 -12.000  -0.3832   0.15007   0.14625  -0.0285  1.0000  0.0394  -1.6390   0.0000   0.1579
 -11.750  -0.3813   0.14752   0.14373  -0.0284  1.0000  0.0402  -1.6393   0.0000   0.1582
 -11.500  -0.3852   0.14448   0.14072  -0.0292  1.0000  0.0410  -1.7243   0.0000   0.1575
 -11.250  -0.3798   0.14211   0.13838  -0.0283  1.0000  0.0416  -1.6645   0.0000   0.1592
 -11.000  -0.3789   0.13958   0.13587  -0.0281  1.0000  0.0426  -1.6676   0.0000   0.1601
 -10.750  -0.3830   0.13654   0.13288  -0.0285  1.0000  0.0434  -1.7418   0.0000   0.1603
 -10.500  -0.3794   0.13420   0.13055  -0.0276  1.0000  0.0440  -1.7029   0.0000   0.1624
 -10.250  -0.3803   0.13159   0.12798  -0.0274  1.0000  0.0451  -1.7222   0.0000   0.1638
 -10.000  -0.3859   0.12855   0.12498  -0.0276  1.0000  0.0457  -1.7918   0.0000   0.1649
  -9.750  -0.3834   0.12627   0.12273  -0.0265  1.0000  0.0465  -1.7552   0.0000   0.1677
  -9.500  -0.3867   0.12364   0.12014  -0.0262  1.0000  0.0476  -1.7818   0.0000   0.1698
  -9.250  -0.3935   0.12070   0.11724  -0.0260  1.0000  0.0483  -1.8405   0.0000   0.1719
  -9.000  -0.3927   0.11852   0.11509  -0.0248  1.0000  0.0492  -1.8072   0.0000   0.1754
  -8.750  -0.4032   0.11570   0.11232  -0.0246  1.0000  0.0505  -1.8811   0.0000   0.1781
  -8.500  -0.4057   0.11334   0.11000  -0.0234  1.0000  0.0512  -1.8689   0.0000   0.1822
  -8.250  -0.4107   0.11112   0.10782  -0.0221  1.0000  0.0524  -1.8700   0.0000   0.1864
  -8.000  -0.4329   0.10835   0.10512  -0.0215  1.0000  0.0532  -1.9947   0.0000   0.1915
  -7.750  -0.4344   0.10640   0.10320  -0.0192  1.0000  0.0539  -1.9478   0.0000   0.1973
  -7.500  -0.4456   0.10455   0.10141  -0.0169  1.0000  0.0547  -1.9542   0.0000   0.2042
  -7.250  -0.4383   0.09911   0.09598  -0.0242  0.9958  0.0565  -2.0301   0.0000   0.1870
  -7.000  -0.4196   0.09216   0.08900  -0.0357  0.9903  0.0592  -2.1238   0.0000   0.1571
  -6.750  -0.3985   0.08939   0.08621  -0.0372  0.9866  0.0609  -2.0168   0.0000   0.1489
  -6.500  -0.3752   0.08371   0.08050  -0.0455  0.9811  0.0639  -2.0332   0.0000   0.1208
  -6.250  -0.3489   0.07806   0.07480  -0.0539  0.9756  0.0676  -2.0400   0.0000   0.0875
  -6.000  -0.3142   0.06962   0.06619  -0.0679  0.9699  0.0737  -2.1424   0.0000   0.0250
  -5.500  -0.2133   0.03308   0.02692  -0.1017  0.9685  0.0504  -3.1979   0.0000  -0.2439
  -5.250  -0.1700   0.03061   0.02400  -0.1057  0.9670  0.0516  -3.0731   0.0000  -0.3927
  -5.000  -0.1324   0.02866   0.02154  -0.1082  0.9628  0.0538  -2.9549   0.0000  -0.5932
  -4.750  -0.0904   0.02734   0.01989  -0.1113  0.9608  0.0566  -2.7894   0.0000  -1.0177
  -4.500  -0.0538   0.02636   0.01871  -0.1133  0.9565  0.0597  -2.6338   0.0000  -1.9112
  -4.250  -0.0130   0.02550   0.01776  -0.1161  0.9539  0.0637  -2.4604   0.0000  -8.9380
  -4.000   0.0244   0.02476   0.01693  -0.1182  0.9496  0.0684  -2.3035   0.0000   5.2038
  -3.750   0.0651   0.02405   0.01617  -0.1209  0.9466  0.0741  -2.1351   0.0000   2.1444
  -3.250   0.1430   0.02288   0.01502  -0.1256  0.9387  0.0880  -1.8152   0.0000   1.1428
  -2.750   0.2198   0.02184   0.01409  -0.1301  0.9306  0.1063  -1.5033   0.0000   0.8493
  -2.500   0.2562   0.02135   0.01369  -0.1319  0.9256  0.1204  -1.3616   0.0000   0.7704
  -2.250   0.2972   0.02074   0.01325  -0.1346  0.9223  0.1486  -1.2201   0.0000   0.7072
  -2.000   0.3329   0.02033   0.01296  -0.1362  0.9165  0.1848  -1.0913   0.0000   0.6622
  -1.750   0.3740   0.01986   0.01253  -0.1388  0.9133  0.2152  -0.9553   0.0000   0.6233
  -1.500   0.4080   0.01945   0.01216  -0.1400  0.9068  0.2393  -0.8404   0.0000   0.5946
  -1.250   0.4504   0.01879   0.01160  -0.1429  0.9043  0.2657  -0.7181   0.0000   0.5681
  -1.000   0.4844   0.01826   0.01119  -0.1441  0.8975  0.2928  -0.7055   0.0000   0.5477
  -0.750   0.5286   0.01739   0.01056  -0.1474  0.8954  0.3443  -0.7411   0.0000   0.5286
  -0.500   0.5623   0.01610   0.01048  -0.1487  0.8893  0.6772  -0.7716   0.0000   0.5138
  -0.250   0.5759   0.01489   0.00978  -0.1438  0.8817  1.0000  -0.7913   0.0000   0.4987
   0.000   0.6186   0.01431   0.00906  -0.1465  0.8784  1.0000  -0.8284   0.0000   0.4854
   0.250   0.6531   0.01395   0.00860  -0.1475  0.8707  1.0000  -0.8613   0.0000   0.4741
   0.500   0.6889   0.01356   0.00813  -0.1487  0.8628  1.0000  -0.8962   0.0000   0.4639
   1.250   0.8024   0.01244   0.00677  -0.1539  0.8349  1.0000  -1.0128   0.0000   0.4390
   1.500   0.8379   0.01223   0.00648  -0.1552  0.8211  1.0000  -1.0525   0.0000   0.4321
   1.750   0.8732   0.01208   0.00623  -0.1565  0.8057  1.0000  -1.0932   0.0000   0.4258
   2.000   0.9102   0.01196   0.00600  -0.1582  0.7906  1.0000  -1.1369   0.0000   0.4201
   2.250   0.9385   0.01206   0.00602  -0.1581  0.7711  1.0000  -1.1952   0.0000   0.4144
   2.500   0.9633   0.01215   0.00605  -0.1571  0.7481  1.0000  -1.2577   0.0000   0.4088
   2.750   0.9962   0.01220   0.00591  -0.1579  0.7298  1.0000  -1.3309   0.0000   0.4039
   3.000   1.0263   0.01241   0.00596  -0.1582  0.7101  1.0000  -1.4015   0.0000   0.3993
   3.250   1.0531   0.01271   0.00613  -0.1578  0.6892  1.0000  -1.4686   0.0000   0.3947
   3.500   1.0778   0.01300   0.00633  -0.1570  0.6677  1.0000  -1.5339   0.0000   0.3902
   3.750   1.1012   0.01328   0.00653  -0.1558  0.6452  1.0000  -1.5980   0.0000   0.3858
   4.000   1.1231   0.01356   0.00673  -0.1544  0.6205  1.0000  -1.6610   0.0000   0.3815
   4.250   1.1438   0.01388   0.00695  -0.1528  0.5930  1.0000  -1.7228   0.0000   0.3772
   4.500   1.1632   0.01427   0.00717  -0.1508  0.5631  1.0000  -1.7836   0.0000   0.3730
   4.750   1.1809   0.01468   0.00746  -0.1486  0.5275  1.0000  -1.8424   0.0000   0.3689
   5.000   1.1972   0.01520   0.00778  -0.1462  0.4935  1.0000  -1.8997   0.0000   0.3648
   5.250   1.2136   0.01577   0.00816  -0.1438  0.4630  1.0000  -1.9572   0.0000   0.3609
   5.500   1.2307   0.01636   0.00858  -0.1416  0.4378  1.0000  -2.0161   0.0000   0.3572
   5.750   1.2486   0.01693   0.00902  -0.1397  0.4169  1.0000  -2.0762   0.0000   0.3537
   6.000   1.2673   0.01748   0.00948  -0.1379  0.3991  1.0000  -2.1378   0.0000   0.3503
   6.250   1.2865   0.01802   0.00994  -0.1363  0.3841  1.0000  -2.2002   0.0000   0.3471
   6.500   1.3053   0.01858   0.01043  -0.1346  0.3708  1.0000  -2.2626   0.0000   0.3439
   6.750   1.3237   0.01917   0.01094  -0.1329  0.3591  1.0000  -2.3247   0.0000   0.3409
   7.000   1.3431   0.01977   0.01149  -0.1314  0.3486  1.0000  -2.3883   0.0000   0.3380
   7.250   1.3635   0.02037   0.01206  -0.1301  0.3389  1.0000  -2.4534   0.0000   0.3352
   7.500   1.3832   0.02094   0.01264  -0.1286  0.3290  1.0000  -2.5178   0.0000   0.3325
   7.750   1.4014   0.02147   0.01321  -0.1269  0.3189  1.0000  -2.5803   0.0000   0.3297
   8.000   1.4185   0.02197   0.01376  -0.1249  0.3089  1.0000  -2.6415   0.0000   0.3268
   8.250   1.4347   0.02246   0.01431  -0.1228  0.2990  1.0000  -2.7016   0.0000   0.3240
   8.500   1.4502   0.02299   0.01487  -0.1206  0.2890  1.0000  -2.7607   0.0000   0.3212
   8.750   1.4653   0.02356   0.01548  -0.1184  0.2785  1.0000  -2.8191   0.0000   0.3185
   9.000   1.4802   0.02417   0.01614  -0.1162  0.2676  1.0000  -2.8788   0.0000   0.3158
   9.250   1.4945   0.02483   0.01685  -0.1140  0.2565  1.0000  -2.9379   0.0000   0.3131
   9.500   1.5080   0.02555   0.01761  -0.1117  0.2452  1.0000  -3.0320   0.0000   0.3105
   9.750   1.5204   0.02636   0.01842  -0.1092  0.2338  1.0000  -3.1376   0.0000   0.3079
  10.000   1.5330   0.02718   0.01929  -0.1069  0.2212  1.0000  -3.2467   0.0000   0.3054
  10.250   1.5436   0.02814   0.02025  -0.1043  0.2082  1.0000  -3.3525   0.0000   0.3029
  10.500   1.5535   0.02918   0.02131  -0.1018  0.1944  1.0000  -3.4593   0.0000   0.3004
  10.750   1.5612   0.03041   0.02250  -0.0990  0.1813  1.0000  -3.5603   0.0000   0.2978
  11.000   1.5694   0.03168   0.02378  -0.0964  0.1683  1.0000  -3.6651   0.0000   0.2954
  11.250   1.5758   0.03310   0.02518  -0.0936  0.1577  1.0000  -3.7678   0.0000   0.2930
  11.500   1.5818   0.03460   0.02666  -0.0909  0.1491  1.0000  -3.8779   0.0000   0.2906
  11.750   1.5885   0.03610   0.02818  -0.0885  0.1417  1.0000  -3.9906   0.0000   0.2883
  12.000   1.5958   0.03760   0.02972  -0.0861  0.1354  1.0000  -4.1061   0.0000   0.2862
  12.250   1.6031   0.03913   0.03130  -0.0839  0.1300  1.0000  -4.2225   0.0000   0.2841
  12.500   1.6095   0.04076   0.03296  -0.0817  0.1257  1.0000  -4.3499   0.0000   0.2821
  12.750   1.6162   0.04239   0.03465  -0.0797  0.1215  1.0000  -4.4893   0.0000   0.2801
  13.000   1.6230   0.04406   0.03640  -0.0778  0.1173  1.0000  -4.6299   0.0000   0.2782
  13.250   1.6283   0.04587   0.03824  -0.0759  0.1137  1.0000  -4.7666   0.0000   0.2764
  13.500   1.6344   0.04767   0.04015  -0.0742  0.1097  1.0000  -4.9068   0.0000   0.2747
  13.750   1.6394   0.04962   0.04218  -0.0725  0.1062  1.0000  -5.0434   0.0000   0.2730
  14.000   1.6434   0.05169   0.04429  -0.0709  0.1028  1.0000  -5.1773   0.0000   0.2714
  14.250   1.6473   0.05384   0.04658  -0.0695  0.0991  1.0000  -5.3094   0.0000   0.2699
  14.500   1.6499   0.05617   0.04899  -0.0681  0.0956  1.0000  -5.4367   0.0000   0.2685
  14.750   1.6516   0.05863   0.05147  -0.0668  0.0922  1.0000  -5.5615   0.0000   0.2671
  15.000   1.6523   0.06133   0.05433  -0.0658  0.0884  1.0000  -5.6779   0.0000   0.2659


