xflr5 v6.10.04

 Calculated polar for: HAM-STD HS1-712 AIRFOIL

 1 1 Reynolds number fixed          Mach number fixed         

 xtrf =   1.000 (top)        1.000 (bottom)
 Mach =   0.030     Re =     0.150 e 6     Ncrit =   9.000

  alpha     CL        CD       CDp       Cm    Top Xtr Bot Xtr   Cpmin    Chinge    XCp    
 ------- -------- --------- --------- -------- ------- ------- -------- --------- ---------
 -15.000  -0.4167   0.18130   0.17656  -0.0275  1.0000  0.0396  -1.5421   0.0000   0.1609
 -14.750  -0.4126   0.17890   0.17418  -0.0279  1.0000  0.0405  -1.5460   0.0000   0.1596
 -14.500  -0.4104   0.17633   0.17165  -0.0287  1.0000  0.0410  -1.5826   0.0000   0.1578
 -14.250  -0.4046   0.17390   0.16923  -0.0286  1.0000  0.0417  -1.5463   0.0000   0.1576
 -14.000  -0.4007   0.17147   0.16683  -0.0288  1.0000  0.0426  -1.5419   0.0000   0.1567
 -13.750  -0.3998   0.16892   0.16430  -0.0296  1.0000  0.0433  -1.5920   0.0000   0.1550
 -13.500  -0.3942   0.16639   0.16180  -0.0293  1.0000  0.0439  -1.5590   0.0000   0.1551
 -13.250  -0.3906   0.16395   0.15938  -0.0294  1.0000  0.0448  -1.5571   0.0000   0.1546
 -13.000  -0.3910   0.16133   0.15680  -0.0302  1.0000  0.0456  -1.6159   0.0000   0.1532
 -12.750  -0.3851   0.15884   0.15433  -0.0297  1.0000  0.0464  -1.5724   0.0000   0.1538
 -12.500  -0.3831   0.15634   0.15186  -0.0298  1.0000  0.0477  -1.5842   0.0000   0.1534
 -12.250  -0.3813   0.15370   0.14925  -0.0299  1.0000  0.0485  -1.5948   0.0000   0.1533
 -12.000  -0.3781   0.15126   0.14683  -0.0297  1.0000  0.0497  -1.5811   0.0000   0.1537
 -11.750  -0.3798   0.14855   0.14417  -0.0302  1.0000  0.0507  -1.6306   0.0000   0.1532
 -11.500  -0.3750   0.14609   0.14173  -0.0295  1.0000  0.0517  -1.5906   0.0000   0.1544
 -11.250  -0.3757   0.14349   0.13917  -0.0297  1.0000  0.0530  -1.6171   0.0000   0.1546
 -11.000  -0.3749   0.14078   0.13649  -0.0295  1.0000  0.0537  -1.6290   0.0000   0.1555
 -10.750  -0.3727   0.13833   0.13407  -0.0290  1.0000  0.0550  -1.6190   0.0000   0.1568
 -10.500  -0.3790   0.13561   0.13139  -0.0297  1.0000  0.0561  -1.6976   0.0000   0.1571
  -8.250  -0.4015   0.11294   0.10911  -0.0232  1.0000  0.0670  -1.7770   0.0000   0.1824
  -8.000  -0.4101   0.11071   0.10694  -0.0220  1.0000  0.0685  -1.7992   0.0000   0.1873
  -7.750  -0.4354   0.10864   0.10495  -0.0207  1.0000  0.0694  -1.9062   0.0000   0.1943
  -7.500  -0.4374   0.10642   0.10277  -0.0183  1.0000  0.0703  -1.8705   0.0000   0.2003
  -7.250  -0.4450   0.10436   0.10076  -0.0165  1.0000  0.0717  -1.8666   0.0000   0.2055
  -6.750  -0.4568   0.09840   0.09490  -0.0175  1.0000  0.0749  -1.9248   0.0000   0.2051
  -6.250  -0.4366   0.09018   0.08669  -0.0264  0.9964  0.0809  -1.9509   0.0000   0.1834
  -5.750  -0.3730   0.07893   0.07530  -0.0446  0.9852  0.0903  -1.9350   0.0000   0.1236
  -5.000  -0.2283   0.04518   0.03986  -0.0878  0.9737  0.0734  -2.5212   0.0000  -0.1474
  -4.000  -0.0472   0.02982   0.02181  -0.1065  0.9621  0.0745  -2.3668   0.0000  -2.0626
  -3.750  -0.0061   0.02890   0.02072  -0.1093  0.9577  0.0797  -2.2208   0.0000  -18.1498
  -3.500   0.0367   0.02807   0.01973  -0.1124  0.9538  0.0864  -2.0673   0.0000   3.3737
  -3.250   0.0757   0.02737   0.01897  -0.1148  0.9481  0.0938  -1.9209   0.0000   1.7945
  -3.000   0.1200   0.02679   0.01840  -0.1182  0.9452  0.1029  -1.7571   0.0000   1.2512
  -2.750   0.1563   0.02629   0.01789  -0.1201  0.9389  0.1127  -1.6136   0.0000   1.0294
  -2.500   0.1933   0.02586   0.01755  -0.1221  0.9333  0.1248  -1.4713   0.0000   0.8897
  -2.250   0.2358   0.02533   0.01708  -0.1251  0.9299  0.1439  -1.3272   0.0000   0.7864
  -2.000   0.2721   0.02489   0.01682  -0.1270  0.9234  0.1744  -1.2006   0.0000   0.7207
  -1.750   0.3111   0.02452   0.01650  -0.1292  0.9178  0.2119  -1.0692   0.0000   0.6683
  -1.500   0.3523   0.02402   0.01608  -0.1319  0.9133  0.2439  -0.9368   0.0000   0.6265
  -1.250   0.3872   0.02359   0.01576  -0.1335  0.9065  0.2730  -0.8228   0.0000   0.5960
  -1.000   0.4312   0.02292   0.01527  -0.1368  0.9039  0.3083  -0.7006   0.0000   0.5678
  -0.750   0.4657   0.02235   0.01496  -0.1382  0.8966  0.3568  -0.6983   0.0000   0.5468
  -0.500   0.5001   0.02098   0.01491  -0.1394  0.8915  0.7055  -0.7286   0.0000   0.5283
  -0.250   0.5168   0.01988   0.01414  -0.1353  0.8830  1.0000  -0.7494   0.0000   0.5110
   0.000   0.5593   0.01929   0.01338  -0.1378  0.8787  1.0000  -0.7857   0.0000   0.4951
   0.250   0.5939   0.01891   0.01287  -0.1387  0.8713  1.0000  -0.8177   0.0000   0.4820
   0.500   0.6300   0.01843   0.01229  -0.1399  0.8646  1.0000  -0.8520   0.0000   0.4702
   0.750   0.6735   0.01767   0.01143  -0.1425  0.8610  1.0000  -0.8927   0.0000   0.4593
   1.000   0.7090   0.01723   0.01093  -0.1436  0.8534  1.0000  -0.9290   0.0000   0.4500
   1.250   0.7464   0.01678   0.01042  -0.1451  0.8461  1.0000  -0.9680   0.0000   0.4416
   1.500   0.7854   0.01630   0.00989  -0.1470  0.8388  1.0000  -1.0094   0.0000   0.4340
   1.750   0.8246   0.01584   0.00938  -0.1488  0.8306  1.0000  -1.0524   0.0000   0.4271
   2.000   0.8634   0.01543   0.00892  -0.1507  0.8209  1.0000  -1.0964   0.0000   0.4208
   2.250   0.9036   0.01502   0.00845  -0.1528  0.8100  1.0000  -1.1441   0.0000   0.4151
   2.500   0.9405   0.01474   0.00812  -0.1542  0.7961  1.0000  -1.2147   0.0000   0.4097
   2.750   0.9779   0.01455   0.00783  -0.1557  0.7806  1.0000  -1.2925   0.0000   0.4047
   3.000   0.9966   0.01473   0.00802  -0.1535  0.7568  1.0000  -1.3481   0.0000   0.3992
   3.250   1.0317   0.01456   0.00772  -0.1545  0.7377  1.0000  -1.4252   0.0000   0.3947
   3.500   1.0659   0.01458   0.00757  -0.1554  0.7168  1.0000  -1.5019   0.0000   0.3904
   3.750   1.0958   0.01481   0.00765  -0.1555  0.6938  1.0000  -1.5739   0.0000   0.3862
   4.000   1.1201   0.01511   0.00786  -0.1545  0.6685  1.0000  -1.6394   0.0000   0.3819
   4.250   1.1427   0.01540   0.00806  -0.1531  0.6420  1.0000  -1.7033   0.0000   0.3777
   4.500   1.1639   0.01572   0.00827  -0.1514  0.6137  1.0000  -1.7659   0.0000   0.3735
   4.750   1.1830   0.01608   0.00851  -0.1494  0.5823  1.0000  -1.8261   0.0000   0.3694
   5.000   1.2019   0.01652   0.00878  -0.1473  0.5510  1.0000  -1.8864   0.0000   0.3654
   5.250   1.2188   0.01698   0.00910  -0.1450  0.5174  1.0000  -1.9442   0.0000   0.3614
   5.500   1.2364   0.01752   0.00947  -0.1428  0.4888  1.0000  -2.0031   0.0000   0.3576
   5.750   1.2544   0.01811   0.00988  -0.1408  0.4643  1.0000  -2.0630   0.0000   0.3541
   6.000   1.2731   0.01871   0.01035  -0.1390  0.4429  1.0000  -2.1239   0.0000   0.3507
   6.250   1.2922   0.01931   0.01084  -0.1373  0.4243  1.0000  -2.1856   0.0000   0.3474
   6.500   1.3114   0.01992   0.01135  -0.1357  0.4078  1.0000  -2.2479   0.0000   0.3443
   6.750   1.3307   0.02051   0.01189  -0.1341  0.3923  1.0000  -2.3105   0.0000   0.3413
   7.000   1.3501   0.02113   0.01243  -0.1326  0.3787  1.0000  -2.3736   0.0000   0.3384
   7.250   1.3698   0.02175   0.01301  -0.1311  0.3659  1.0000  -2.4372   0.0000   0.3356
   7.500   1.3905   0.02242   0.01362  -0.1299  0.3544  1.0000  -2.5025   0.0000   0.3329
   7.750   1.4125   0.02315   0.01427  -0.1290  0.3432  1.0000  -2.5699   0.0000   0.3305
   8.000   1.4335   0.02386   0.01497  -0.1279  0.3320  1.0000  -2.6356   0.0000   0.3280
   8.250   1.4510   0.02448   0.01566  -0.1261  0.3211  1.0000  -2.6963   0.0000   0.3253
   8.500   1.4656   0.02504   0.01631  -0.1236  0.3106  1.0000  -2.7529   0.0000   0.3224
   8.750   1.4787   0.02561   0.01696  -0.1209  0.3004  1.0000  -2.8075   0.0000   0.3195
   9.000   1.4908   0.02620   0.01761  -0.1181  0.2902  1.0000  -2.8615   0.0000   0.3165
   9.250   1.5023   0.02685   0.01830  -0.1152  0.2799  1.0000  -2.9301   0.0000   0.3136
   9.500   1.5131   0.02756   0.01908  -0.1123  0.2687  1.0000  -3.0281   0.0000   0.3108
   9.750   1.5232   0.02834   0.01993  -0.1094  0.2569  1.0000  -3.1268   0.0000   0.3080
  10.000   1.5327   0.02919   0.02084  -0.1064  0.2451  1.0000  -3.2273   0.0000   0.3052
  10.250   1.5412   0.03016   0.02180  -0.1035  0.2335  1.0000  -3.3262   0.0000   0.3025
  10.500   1.5493   0.03118   0.02291  -0.1005  0.2203  1.0000  -3.4265   0.0000   0.2998
  10.750   1.5559   0.03236   0.02408  -0.0975  0.2078  1.0000  -3.5235   0.0000   0.2971
  11.000   1.5622   0.03364   0.02539  -0.0945  0.1949  1.0000  -3.6209   0.0000   0.2946
  11.250   1.5679   0.03504   0.02679  -0.0916  0.1832  1.0000  -3.7184   0.0000   0.2921
  11.500   1.5737   0.03654   0.02825  -0.0889  0.1732  1.0000  -3.8205   0.0000   0.2897
  11.750   1.5803   0.03806   0.02975  -0.0863  0.1646  1.0000  -3.9307   0.0000   0.2874
  12.000   1.5877   0.03958   0.03129  -0.0840  0.1570  1.0000  -4.0445   0.0000   0.2852
  12.250   1.5955   0.04110   0.03287  -0.0818  0.1502  1.0000  -4.1604   0.0000   0.2831
  12.500   1.6037   0.04264   0.03448  -0.0797  0.1444  1.0000  -4.2838   0.0000   0.2811
  12.750   1.6119   0.04420   0.03608  -0.0777  0.1393  1.0000  -4.4265   0.0000   0.2791
  13.000   1.6198   0.04579   0.03766  -0.0758  0.1345  1.0000  -4.5712   0.0000   0.2772
  13.250   1.6262   0.04750   0.03952  -0.0739  0.1297  1.0000  -4.7080   0.0000   0.2754
  13.500   1.6328   0.04923   0.04131  -0.0721  0.1253  1.0000  -4.8489   0.0000   0.2736
  13.750   1.6392   0.05098   0.04309  -0.0703  0.1211  1.0000  -4.9911   0.0000   0.2719
  14.000   1.6426   0.05302   0.04530  -0.0685  0.1167  1.0000  -5.1173   0.0000   0.2702
  14.250   1.6466   0.05505   0.04740  -0.0669  0.1126  1.0000  -5.2491   0.0000   0.2686
  14.500   1.6507   0.05709   0.04945  -0.0654  0.1084  1.0000  -5.3842   0.0000   0.2670
  14.750   1.6499   0.05966   0.05221  -0.0638  0.1041  1.0000  -5.4910   0.0000   0.2655
  15.000   1.6498   0.06224   0.05491  -0.0624  0.0998  1.0000  -5.6021   0.0000   0.2641


