xflr5 v6.10.04

 Calculated polar for: HAM-STD HS1-712 AIRFOIL

 1 1 Reynolds number fixed          Mach number fixed         

 xtrf =   1.000 (top)        1.000 (bottom)
 Mach =   0.030     Re =     0.100 e 6     Ncrit =   9.000

  alpha     CL        CD       CDp       Cm    Top Xtr Bot Xtr   Cpmin    Chinge    XCp    
 ------- -------- --------- --------- -------- ------- ------- -------- --------- ---------
 -15.000  -0.4145   0.18285   0.17704  -0.0288  1.0000  0.0557  -1.4994   0.0000   0.1575
 -14.750  -0.4109   0.18042   0.17464  -0.0293  1.0000  0.0564  -1.5095   0.0000   0.1559
 -14.500  -0.4050   0.17793   0.17217  -0.0294  1.0000  0.0577  -1.4853   0.0000   0.1551
 -14.250  -0.4029   0.17577   0.17004  -0.0302  1.0000  0.0590  -1.5089   0.0000   0.1533
 -14.000  -0.3975   0.17309   0.16740  -0.0302  1.0000  0.0600  -1.4916   0.0000   0.1527
 -13.750  -0.3934   0.17074   0.16507  -0.0304  1.0000  0.0615  -1.4910   0.0000   0.1517
 -13.500  -0.3930   0.16850   0.16288  -0.0312  1.0000  0.0625  -1.5312   0.0000   0.1502
 -13.250  -0.3862   0.16575   0.16015  -0.0307  1.0000  0.0638  -1.4969   0.0000   0.1502
 -13.000  -0.3840   0.16343   0.15786  -0.0311  1.0000  0.0653  -1.5105   0.0000   0.1494
 -12.750  -0.3827   0.16095   0.15542  -0.0314  1.0000  0.0662  -1.5309   0.0000   0.1487
 -12.500  -0.3772   0.15834   0.15283  -0.0310  1.0000  0.0676  -1.5052   0.0000   0.1489
 -12.250  -0.3777   0.15609   0.15063  -0.0315  1.0000  0.0692  -1.5357   0.0000   0.1482
 -12.000  -0.3737   0.15334   0.14792  -0.0312  1.0000  0.0704  -1.5218   0.0000   0.1486
 -11.750  -0.3712   0.15091   0.14552  -0.0311  1.0000  0.0724  -1.5160   0.0000   0.1489
 -11.500  -0.3739   0.14857   0.14323  -0.0316  1.0000  0.0737  -1.5562   0.0000   0.1488
 -11.250  -0.3676   0.14582   0.14051  -0.0307  1.0000  0.0755  -1.5215   0.0000   0.1500
 -11.000  -0.3714   0.14364   0.13838  -0.0312  1.0000  0.0775  -1.5680   0.0000   0.1503
 -10.750  -0.3679   0.14077   0.13555  -0.0306  1.0000  0.0787  -1.5563   0.0000   0.1516
 -10.500  -0.3659   0.13827   0.13308  -0.0300  1.0000  0.0807  -1.5501   0.0000   0.1530
 -10.250  -0.3760   0.13630   0.13118  -0.0309  1.0000  0.0823  -1.6288   0.0000   0.1540
 -10.000  -0.3672   0.13317   0.12807  -0.0294  1.0000  0.0840  -1.5733   0.0000   0.1563
  -9.750  -0.3698   0.13085   0.12580  -0.0291  1.0000  0.0865  -1.5910   0.0000   0.1583
  -9.250  -0.3710   0.12575   0.12080  -0.0276  1.0000  0.0904  -1.5924   0.0000   0.1635
  -9.000  -0.3839   0.12382   0.11894  -0.0278  1.0000  0.0926  -1.6610   0.0000   0.1663
  -8.750  -0.3807   0.12086   0.11603  -0.0264  1.0000  0.0942  -1.6332   0.0000   0.1698
  -8.500  -0.3824   0.11852   0.11374  -0.0252  1.0000  0.0967  -1.6260   0.0000   0.1738
  -8.250  -0.4015   0.11684   0.11215  -0.0249  1.0000  0.0985  -1.7072   0.0000   0.1787
  -8.000  -0.4018   0.11399   0.10934  -0.0232  1.0000  0.0998  -1.6896   0.0000   0.1833
  -7.750  -0.4030   0.11167   0.10708  -0.0213  1.0000  0.1020  -1.6709   0.0000   0.1886
  -7.500  -0.4197   0.10996   0.10545  -0.0195  1.0000  0.1040  -1.7160   0.0000   0.1958
  -7.250  -0.4464   0.10788   0.10347  -0.0210  1.0000  0.1051  -1.8350   0.0000   0.1960
  -7.000  -0.4142   0.10824   0.10398  -0.0156  1.0000  0.1088  -1.6590   0.0000   0.2061
  -6.750  -0.4300   0.10560   0.10141  -0.0170  1.0000  0.1114  -1.7294   0.0000   0.2048
  -6.250  -0.4329   0.09990   0.09582  -0.0156  1.0000  0.1155  -1.7200   0.0000   0.2089
  -5.750  -0.4352   0.09317   0.08915  -0.0193  1.0000  0.1212  -1.7689   0.0000   0.2009
  -5.250  -0.4241   0.08263   0.07843  -0.0272  1.0000  0.1298  -1.8285   0.0000   0.1809
  -5.000  -0.4090   0.07852   0.07425  -0.0325  1.0000  0.1366  -1.8448   0.0000   0.1655
  -4.750  -0.3896   0.07466   0.07027  -0.0379  1.0000  0.1445  -1.8478   0.0000   0.1477
  -4.000  -0.2137   0.04388   0.03711  -0.0768  0.9930  0.0929  -2.3152   0.0000  -0.1206
  -3.750  -0.1597   0.03943   0.03179  -0.0834  0.9898  0.0928  -2.2931   0.0000  -0.2869
  -3.500  -0.1122   0.03771   0.02978  -0.0880  0.9853  0.0970  -2.1660   0.0000  -0.5543
  -3.250  -0.0646   0.03603   0.02764  -0.0924  0.9803  0.1027  -2.0605   0.0000  -1.2132
  -3.000  -0.0192   0.03489   0.02614  -0.0962  0.9748  0.1103  -1.9391   0.0000  -4.8716
  -2.750   0.0251   0.03405   0.02501  -0.0996  0.9689  0.1197  -1.8141   0.0000   4.2964
  -2.500   0.0666   0.03359   0.02455  -0.1027  0.9625  0.1304  -1.6700   0.0000   1.8164
  -2.250   0.1085   0.03317   0.02398  -0.1057  0.9561  0.1441  -1.5338   0.0000   1.2383
  -2.000   0.1495   0.03280   0.02367  -0.1086  0.9497  0.1597  -1.3994   0.0000   0.9850
  -1.750   0.1952   0.03240   0.02334  -0.1122  0.9451  0.1860  -1.2625   0.0000   0.8305
  -1.500   0.2341   0.03203   0.02305  -0.1147  0.9380  0.2244  -1.1429   0.0000   0.7438
  -1.250   0.2719   0.03166   0.02281  -0.1170  0.9308  0.2644  -1.0227   0.0000   0.6830
  -1.000   0.3094   0.03131   0.02263  -0.1193  0.9237  0.3039  -0.9050   0.0000   0.6371
  -0.750   0.3480   0.03090   0.02246  -0.1217  0.9170  0.3516  -0.7906   0.0000   0.6005
  -0.500   0.3933   0.03021   0.02229  -0.1253  0.9127  0.4524  -0.6723   0.0000   0.5688
  -0.250   0.4075   0.02857   0.02199  -0.1210  0.9042  1.0000  -0.6710   0.0000   0.5466
   0.250   0.4834   0.02835   0.02125  -0.1247  0.8874  1.0000  -0.7344   0.0000   0.5065
   0.500   0.5214   0.02810   0.02084  -0.1264  0.8788  1.0000  -0.7679   0.0000   0.4906
   0.750   0.5595   0.02776   0.02037  -0.1280  0.8702  1.0000  -0.8027   0.0000   0.4767
   1.000   0.5964   0.02745   0.01995  -0.1295  0.8618  1.0000  -0.8378   0.0000   0.4645
   1.250   0.6324   0.02714   0.01957  -0.1307  0.8535  1.0000  -0.8736   0.0000   0.4538
   1.500   0.6690   0.02676   0.01913  -0.1320  0.8454  1.0000  -0.9112   0.0000   0.4441
   1.750   0.7064   0.02627   0.01858  -0.1333  0.8375  1.0000  -0.9509   0.0000   0.4352
   2.000   0.7450   0.02564   0.01791  -0.1347  0.8298  1.0000  -0.9929   0.0000   0.4270
   2.250   0.7857   0.02481   0.01705  -0.1363  0.8229  1.0000  -1.0381   0.0000   0.4194
   2.500   0.8351   0.02359   0.01581  -0.1393  0.8180  1.0000  -1.0926   0.0000   0.4126
   2.750   0.8709   0.02299   0.01521  -0.1401  0.8072  1.0000  -1.1387   0.0000   0.4064
   3.000   0.9169   0.02204   0.01426  -0.1427  0.7982  1.0000  -1.2215   0.0000   0.4009
   3.250   0.9674   0.02096   0.01316  -0.1461  0.7890  1.0000  -1.3157   0.0000   0.3960
   3.500   1.0025   0.02051   0.01271  -0.1468  0.7729  1.0000  -1.3917   0.0000   0.3911
   3.750   1.0297   0.02026   0.01247  -0.1459  0.7528  1.0000  -1.4587   0.0000   0.3861
   4.000   1.0744   0.01951   0.01165  -0.1482  0.7347  1.0000  -1.5493   0.0000   0.3821
   4.250   1.1179   0.01909   0.01110  -0.1504  0.7119  1.0000  -1.6394   0.0000   0.3784
   4.500   1.1494   0.01919   0.01108  -0.1505  0.6837  1.0000  -1.7145   0.0000   0.3745
   4.750   1.1748   0.01943   0.01120  -0.1494  0.6532  1.0000  -1.7821   0.0000   0.3704
   5.000   1.1980   0.01972   0.01138  -0.1480  0.6218  1.0000  -1.8472   0.0000   0.3664
   5.250   1.2194   0.02009   0.01160  -0.1463  0.5905  1.0000  -1.9102   0.0000   0.3625
   5.500   1.2416   0.02050   0.01184  -0.1448  0.5619  1.0000  -1.9747   0.0000   0.3588
   5.750   1.2609   0.02101   0.01222  -0.1428  0.5340  1.0000  -2.0352   0.0000   0.3552
   6.000   1.2807   0.02152   0.01262  -0.1411  0.5095  1.0000  -2.0966   0.0000   0.3518
   6.250   1.3016   0.02210   0.01306  -0.1396  0.4877  1.0000  -2.1599   0.0000   0.3485
   6.500   1.3227   0.02271   0.01356  -0.1382  0.4679  1.0000  -2.2237   0.0000   0.3455
   6.750   1.3437   0.02337   0.01413  -0.1369  0.4493  1.0000  -2.2875   0.0000   0.3425
   7.000   1.3644   0.02405   0.01473  -0.1355  0.4319  1.0000  -2.3512   0.0000   0.3396
   7.250   1.3856   0.02474   0.01533  -0.1343  0.4156  1.0000  -2.4162   0.0000   0.3369
   7.500   1.4055   0.02544   0.01601  -0.1329  0.4000  1.0000  -2.4789   0.0000   0.3341
   7.750   1.4264   0.02618   0.01670  -0.1317  0.3857  1.0000  -2.5435   0.0000   0.3315
   8.000   1.4466   0.02693   0.01744  -0.1303  0.3718  1.0000  -2.6068   0.0000   0.3290
   8.250   1.4686   0.02775   0.01819  -0.1294  0.3584  1.0000  -2.6732   0.0000   0.3266
   8.500   1.4901   0.02864   0.01907  -0.1284  0.3451  1.0000  -2.7382   0.0000   0.3243
   8.750   1.5131   0.02961   0.01999  -0.1278  0.3322  1.0000  -2.8051   0.0000   0.3222
   9.000   1.5284   0.03047   0.02098  -0.1256  0.3193  1.0000  -2.8896   0.0000   0.3196
   9.250   1.5444   0.03126   0.02181  -0.1235  0.3072  1.0000  -2.9973   0.0000   0.3170
   9.500   1.5545   0.03199   0.02267  -0.1203  0.2952  1.0000  -3.0937   0.0000   0.3141
   9.750   1.5631   0.03271   0.02349  -0.1169  0.2833  1.0000  -3.1894   0.0000   0.3111
  10.000   1.5709   0.03345   0.02427  -0.1133  0.2717  1.0000  -3.2857   0.0000   0.3080
  10.250   1.5766   0.03430   0.02514  -0.1095  0.2599  1.0000  -3.3778   0.0000   0.3049
  10.500   1.5793   0.03530   0.02625  -0.1053  0.2476  1.0000  -3.4621   0.0000   0.3017
  10.750   1.5841   0.03636   0.02733  -0.1016  0.2355  1.0000  -3.5533   0.0000   0.2988
  11.000   1.5902   0.03751   0.02846  -0.0982  0.2237  1.0000  -3.6509   0.0000   0.2960
  11.250   1.5940   0.03883   0.02988  -0.0947  0.2121  1.0000  -3.7405   0.0000   0.2932
  11.500   1.6002   0.04019   0.03126  -0.0916  0.2017  1.0000  -3.8422   0.0000   0.2906
  11.750   1.6083   0.04158   0.03268  -0.0890  0.1923  1.0000  -3.9537   0.0000   0.2883
  12.000   1.6180   0.04303   0.03417  -0.0867  0.1840  1.0000  -4.0728   0.0000   0.2861
  12.250   1.6282   0.04451   0.03571  -0.0845  0.1765  1.0000  -4.1943   0.0000   0.2840
  12.500   1.6384   0.04600   0.03725  -0.0825  0.1697  1.0000  -4.3337   0.0000   0.2819
  12.750   1.6496   0.04745   0.03871  -0.0806  0.1633  1.0000  -4.4880   0.0000   0.2800
  13.000   1.6593   0.04893   0.04024  -0.0786  0.1572  1.0000  -4.6383   0.0000   0.2781
  13.250   1.6623   0.05081   0.04233  -0.0759  0.1517  1.0000  -4.7562   0.0000   0.2759
  13.500   1.6695   0.05254   0.04415  -0.0738  0.1464  1.0000  -4.8959   0.0000   0.2740
  13.750   1.6800   0.05408   0.04569  -0.0722  0.1408  1.0000  -5.0542   0.0000   0.2722
  14.000   1.6788   0.05621   0.04803  -0.0694  0.1358  1.0000  -5.1568   0.0000   0.2701
  14.250   1.6784   0.05843   0.05042  -0.0670  0.1309  1.0000  -5.2627   0.0000   0.2682
  14.500   1.6815   0.06047   0.05252  -0.0650  0.1256  1.0000  -5.3877   0.0000   0.2664
  14.750   1.6864   0.06243   0.05449  -0.0632  0.1201  1.0000  -5.5222   0.0000   0.2648
  15.000   1.6792   0.06523   0.05752  -0.0608  0.1155  1.0000  -5.5929   0.0000   0.2630


