xflr5 v6.10.04

 Calculated polar for: HAM-STD HS1-712 AIRFOIL

 1 1 Reynolds number fixed          Mach number fixed         

 xtrf =   1.000 (top)        1.000 (bottom)
 Mach =   0.030     Re =     0.300 e 6     Ncrit =   9.000

  alpha     CL        CD       CDp       Cm    Top Xtr Bot Xtr   Cpmin    Chinge    XCp    
 ------- -------- --------- --------- -------- ------- ------- -------- --------- ---------
 -15.000  -0.4272   0.17960   0.17628  -0.0252  1.0000  0.0247  -1.6893   0.0000   0.1683
 -14.750  -0.4224   0.17726   0.17395  -0.0252  1.0000  0.0249  -1.6603   0.0000   0.1680
 -14.500  -0.4177   0.17501   0.17171  -0.0253  1.0000  0.0253  -1.6311   0.0000   0.1676
 -14.250  -0.4138   0.17258   0.16930  -0.0255  1.0000  0.0258  -1.6250   0.0000   0.1670
 -14.000  -0.4117   0.16973   0.16647  -0.0260  1.0000  0.0265  -1.6700   0.0000   0.1656
 -13.750  -0.4087   0.16702   0.16378  -0.0263  1.0000  0.0267  -1.6778   0.0000   0.1651
 -13.500  -0.4043   0.16477   0.16155  -0.0261  1.0000  0.0271  -1.6406   0.0000   0.1652
 -13.250  -0.4010   0.16231   0.15911  -0.0262  1.0000  0.0277  -1.6368   0.0000   0.1649
 -13.000  -0.4014   0.15912   0.15594  -0.0270  1.0000  0.0284  -1.7286   0.0000   0.1633
 -12.750  -0.3970   0.15680   0.15363  -0.0266  1.0000  0.0287  -1.6871   0.0000   0.1640
 -12.500  -0.3935   0.15447   0.15133  -0.0264  1.0000  0.0293  -1.6647   0.0000   0.1643
 -12.250  -0.3921   0.15175   0.14863  -0.0266  1.0000  0.0301  -1.6880   0.0000   0.1641
 -12.000  -0.3932   0.14855   0.14546  -0.0271  1.0000  0.0305  -1.7574   0.0000   0.1635
 -11.750  -0.3893   0.14632   0.14324  -0.0266  1.0000  0.0308  -1.7122   0.0000   0.1647
 -11.500  -0.3873   0.14385   0.14079  -0.0263  1.0000  0.0314  -1.7016   0.0000   0.1655
 -11.250  -0.3883   0.14091   0.13788  -0.0265  1.0000  0.0322  -1.7457   0.0000   0.1656
 -11.000  -0.3902   0.13781   0.13481  -0.0267  1.0000  0.0325  -1.7936   0.0000   0.1660
 -10.750  -0.3874   0.13557   0.13259  -0.0260  1.0000  0.0329  -1.7564   0.0000   0.1679
 -10.500  -0.3872   0.13305   0.13010  -0.0256  1.0000  0.0336  -1.7601   0.0000   0.1694
 -10.250  -0.3924   0.12980   0.12688  -0.0260  1.0000  0.0344  -1.8510   0.0000   0.1699
 -10.000  -0.3940   0.12704   0.12414  -0.0255  1.0000  0.0347  -1.8673   0.0000   0.1719
  -9.750  -0.3930   0.12486   0.12199  -0.0246  1.0000  0.0352  -1.8366   0.0000   0.1745
  -9.500  -0.3960   0.12223   0.11939  -0.0241  1.0000  0.0360  -1.8594   0.0000   0.1767
  -9.250  -0.4031   0.11812   0.11531  -0.0259  0.9994  0.0367  -1.9881   0.0000   0.1739
  -9.000  -0.3871   0.11490   0.11209  -0.0282  0.9977  0.0373  -1.9104   0.0000   0.1653
  -8.750  -0.3786   0.11045   0.10764  -0.0324  0.9954  0.0384  -1.9526   0.0000   0.1527
  -8.500  -0.3740   0.10559   0.10279  -0.0367  0.9925  0.0390  -2.0284   0.0000   0.1403
  -8.250  -0.3622   0.10225   0.09945  -0.0391  0.9900  0.0397  -1.9854   0.0000   0.1304
  -8.000  -0.3649   0.09714   0.09436  -0.0440  0.9859  0.0408  -2.1105   0.0000   0.1183
  -7.750  -0.3611   0.09335   0.09058  -0.0464  0.9814  0.0413  -2.1190   0.0000   0.1106
  -7.500  -0.3474   0.08904   0.08628  -0.0512  0.9772  0.0426  -2.1120   0.0000   0.0919
  -6.750  -0.2912   0.03283   0.02785  -0.1082  0.9633  0.0343  -4.0449   0.0000  -0.1378
  -6.500  -0.2547   0.03005   0.02466  -0.1116  0.9616  0.0352  -3.9066   0.0000  -0.2063
  -6.250  -0.2149   0.02704   0.02088  -0.1154  0.9608  0.0368  -3.8066   0.0000  -0.3075
  -6.000  -0.1817   0.02571   0.01933  -0.1171  0.9582  0.0381  -3.6198   0.0000  -0.4176
  -5.750  -0.1470   0.02444   0.01780  -0.1189  0.9558  0.0400  -3.4426   0.0000  -0.5862
  -5.500  -0.1086   0.02323   0.01635  -0.1214  0.9543  0.0421  -3.2557   0.0000  -0.9038
  -5.250  -0.0689   0.02219   0.01518  -0.1242  0.9533  0.0445  -3.0527   0.0000  -1.6060
  -5.000  -0.0369   0.02143   0.01436  -0.1252  0.9495  0.0469  -2.8793   0.0000  -3.2306
  -4.750  -0.0001   0.02075   0.01365  -0.1272  0.9474  0.0499  -2.6908   0.0000  -2039.0570
  -4.500   0.0388   0.02015   0.01300  -0.1296  0.9460  0.0535  -2.5095   0.0000   3.6684
  -4.250   0.0720   0.01968   0.01255  -0.1308  0.9427  0.0573  -2.3389   0.0000   2.1057
  -4.000   0.1082   0.01915   0.01197  -0.1326  0.9398  0.0624  -2.1698   0.0000   1.5001
  -3.750   0.1482   0.01853   0.01144  -0.1353  0.9383  0.0680  -1.9932   0.0000   1.1793
  -3.500   0.1826   0.01808   0.01099  -0.1367  0.9342  0.0737  -1.8342   0.0000   1.0105
  -3.250   0.2205   0.01756   0.01053  -0.1388  0.9313  0.0799  -1.6660   0.0000   0.8884
  -3.000   0.2614   0.01702   0.01002  -0.1415  0.9298  0.0878  -1.5029   0.0000   0.7983
  -2.750   0.2933   0.01664   0.00971  -0.1424  0.9249  0.0980  -1.3645   0.0000   0.7409
  -2.500   0.3331   0.01605   0.00926  -0.1449  0.9227  0.1204  -1.2180   0.0000   0.6892
  -2.250   0.3755   0.01545   0.00882  -0.1480  0.9213  0.1599  -1.0736   0.0000   0.6473
  -2.000   0.4071   0.01511   0.00855  -0.1486  0.9154  0.1859  -0.9546   0.0000   0.6174
  -1.750   0.4493   0.01457   0.00804  -0.1515  0.9136  0.2103  -0.8233   0.0000   0.5888
  -1.500   0.4835   0.01414   0.00765  -0.1526  0.9083  0.2291  -0.7146   0.0000   0.5667
  -1.250   0.5244   0.01359   0.00716  -0.1553  0.9053  0.2502  -0.7237   0.0000   0.5466
  -1.000   0.5576   0.01314   0.00678  -0.1562  0.8990  0.2711  -0.7528   0.0000   0.5303
  -0.750   0.5985   0.01250   0.00629  -0.1589  0.8952  0.3062  -0.7874   0.0000   0.5152
  -0.500   0.6325   0.01178   0.00599  -0.1603  0.8868  0.4290  -0.8182   0.0000   0.5027
  -0.250   0.6589   0.01055   0.00597  -0.1595  0.8779  0.8245  -0.8461   0.0000   0.4910
   0.000   0.6728   0.00991   0.00546  -0.1553  0.8635  1.0000  -0.8667   0.0000   0.4794
   0.250   0.7105   0.00963   0.00506  -0.1571  0.8514  1.0000  -0.9023   0.0000   0.4695
   0.500   0.7459   0.00946   0.00476  -0.1585  0.8361  1.0000  -0.9378   0.0000   0.4605
   0.750   0.7810   0.00937   0.00454  -0.1599  0.8199  1.0000  -0.9743   0.0000   0.4524
   1.000   0.8137   0.00938   0.00442  -0.1608  0.8024  1.0000  -1.0104   0.0000   0.4449
   1.250   0.8468   0.00945   0.00433  -0.1617  0.7860  1.0000  -1.0479   0.0000   0.4381
   1.500   0.8699   0.00961   0.00446  -0.1606  0.7595  1.0000  -1.0793   0.0000   0.4314
   1.750   0.8991   0.00973   0.00437  -0.1606  0.7369  1.0000  -1.1162   0.0000   0.4252
   2.000   0.9274   0.00996   0.00439  -0.1606  0.7175  1.0000  -1.1665   0.0000   0.4194
   2.250   0.9547   0.01025   0.00453  -0.1604  0.6989  1.0000  -1.2319   0.0000   0.4139
   2.500   0.9806   0.01051   0.00470  -0.1599  0.6805  1.0000  -1.2964   0.0000   0.4087
   2.750   1.0059   0.01075   0.00485  -0.1592  0.6622  1.0000  -1.3609   0.0000   0.4037
   3.000   1.0305   0.01098   0.00500  -0.1585  0.6433  1.0000  -1.4253   0.0000   0.3989
   3.250   1.0543   0.01123   0.00517  -0.1575  0.6228  1.0000  -1.4893   0.0000   0.3942
   3.500   1.0771   0.01151   0.00535  -0.1564  0.5997  1.0000  -1.5528   0.0000   0.3897
   3.750   1.0984   0.01183   0.00554  -0.1549  0.5729  1.0000  -1.6150   0.0000   0.3852
   4.000   1.1190   0.01219   0.00577  -0.1533  0.5431  1.0000  -1.6767   0.0000   0.3809
   4.500   1.1539   0.01317   0.00635  -0.1489  0.4679  1.0000  -1.7935   0.0000   0.3723
   4.750   1.1713   0.01373   0.00672  -0.1468  0.4360  1.0000  -1.8522   0.0000   0.3683
   5.000   1.1898   0.01426   0.00710  -0.1449  0.4099  1.0000  -1.9128   0.0000   0.3645
   5.250   1.2090   0.01476   0.00748  -0.1432  0.3893  1.0000  -1.9747   0.0000   0.3608
   5.500   1.2287   0.01524   0.00787  -0.1417  0.3732  1.0000  -2.0376   0.0000   0.3574
   5.750   1.2479   0.01574   0.00828  -0.1400  0.3610  1.0000  -2.1002   0.0000   0.3539
   6.000   1.2663   0.01626   0.00872  -0.1382  0.3507  1.0000  -2.1621   0.0000   0.3506
   6.250   1.2855   0.01677   0.00918  -0.1365  0.3411  1.0000  -2.2255   0.0000   0.3473
   6.500   1.3056   0.01724   0.00964  -0.1351  0.3322  1.0000  -2.2903   0.0000   0.3443
   6.750   1.3261   0.01766   0.01007  -0.1337  0.3235  1.0000  -2.3561   0.0000   0.3413
   7.000   1.3466   0.01804   0.01048  -0.1324  0.3144  1.0000  -2.4222   0.0000   0.3384
   7.250   1.3669   0.01840   0.01089  -0.1310  0.3045  1.0000  -2.4884   0.0000   0.3356
   7.500   1.3867   0.01878   0.01129  -0.1295  0.2943  1.0000  -2.5542   0.0000   0.3328
   7.750   1.4057   0.01921   0.01173  -0.1279  0.2838  1.0000  -2.6191   0.0000   0.3301
   8.000   1.4242   0.01968   0.01220  -0.1262  0.2736  1.0000  -2.6831   0.0000   0.3274
   8.250   1.4420   0.02019   0.01272  -0.1245  0.2631  1.0000  -2.7461   0.0000   0.3247
   8.500   1.4594   0.02074   0.01327  -0.1227  0.2528  1.0000  -2.8101   0.0000   0.3221
   8.750   1.4764   0.02132   0.01385  -0.1209  0.2422  1.0000  -2.8742   0.0000   0.3195
   9.000   1.4935   0.02191   0.01446  -0.1191  0.2307  1.0000  -2.9382   0.0000   0.3170
   9.250   1.5095   0.02255   0.01511  -0.1172  0.2187  1.0000  -3.0004   0.0000   0.3145
   9.500   1.5242   0.02329   0.01583  -0.1151  0.2064  1.0000  -3.0883   0.0000   0.3120
   9.750   1.5387   0.02406   0.01658  -0.1130  0.1925  1.0000  -3.2026   0.0000   0.3095
  10.000   1.5516   0.02494   0.01744  -0.1108  0.1784  1.0000  -3.3138   0.0000   0.3070
  10.250   1.5630   0.02593   0.01839  -0.1084  0.1644  1.0000  -3.4252   0.0000   0.3046
  10.500   1.5740   0.02698   0.01940  -0.1059  0.1504  1.0000  -3.5362   0.0000   0.3021
  10.750   1.5839   0.02812   0.02052  -0.1034  0.1385  1.0000  -3.6468   0.0000   0.2997
  11.000   1.5931   0.02932   0.02171  -0.1009  0.1290  1.0000  -3.7653   0.0000   0.2973
  11.250   1.6021   0.03056   0.02295  -0.0984  0.1219  1.0000  -3.8870   0.0000   0.2949
  11.500   1.6112   0.03181   0.02423  -0.0960  0.1162  1.0000  -4.0102   0.0000   0.2927
  11.750   1.6201   0.03311   0.02556  -0.0937  0.1115  1.0000  -4.1339   0.0000   0.2905
  12.000   1.6278   0.03451   0.02699  -0.0913  0.1077  1.0000  -4.2550   0.0000   0.2883
  12.250   1.6366   0.03586   0.02840  -0.0892  0.1039  1.0000  -4.3947   0.0000   0.2862
  12.500   1.6442   0.03732   0.02993  -0.0871  0.1007  1.0000  -4.5412   0.0000   0.2842
  12.750   1.6506   0.03892   0.03157  -0.0849  0.0977  1.0000  -4.6843   0.0000   0.2822
  13.000   1.6584   0.04046   0.03320  -0.0830  0.0945  1.0000  -4.8341   0.0000   0.2804
  13.250   1.6633   0.04229   0.03507  -0.0810  0.0919  1.0000  -4.9729   0.0000   0.2785
  13.500   1.6707   0.04395   0.03684  -0.0794  0.0889  1.0000  -5.1240   0.0000   0.2768
  13.750   1.6764   0.04582   0.03880  -0.0777  0.0860  1.0000  -5.2684   0.0000   0.2751
  14.000   1.6805   0.04789   0.04093  -0.0761  0.0833  1.0000  -5.4070   0.0000   0.2735
  14.250   1.6854   0.04995   0.04309  -0.0746  0.0803  1.0000  -5.5497   0.0000   0.2720
  14.500   1.6866   0.05243   0.04564  -0.0731  0.0777  1.0000  -5.6748   0.0000   0.2705
  14.750   1.6841   0.05537   0.04859  -0.0716  0.0754  1.0000  -5.7826   0.0000   0.2691
  15.000   1.6817   0.05839   0.05167  -0.0703  0.0728  1.0000  -5.8891   0.0000   0.2679


