xflr5 v6.10.04

 Calculated polar for: MH 114  13.02%

 1 1 Reynolds number fixed          Mach number fixed         

 xtrf =   1.000 (top)        1.000 (bottom)
 Mach =   0.030     Re =     0.150 e 6     Ncrit =   9.000

  alpha     CL        CD       CDp       Cm    Top Xtr Bot Xtr   Cpmin    Chinge    XCp    
 ------- -------- --------- --------- -------- ------- ------- -------- --------- ---------
 -15.000  -0.2759   0.17520   0.17077  -0.0441  1.0000  0.0310  -1.4038   0.0000   0.0548
 -14.750  -0.2725   0.17316   0.16877  -0.0433  1.0000  0.0314  -1.3711   0.0000   0.0560
 -14.500  -0.2708   0.17138   0.16703  -0.0426  1.0000  0.0320  -1.3593   0.0000   0.0583
 -14.250  -0.2704   0.16969   0.16540  -0.0418  1.0000  0.0326  -1.3598   0.0000   0.0619
 -14.000  -0.2714   0.16810   0.16386  -0.0409  1.0000  0.0333  -1.3739   0.0000   0.0668
 -13.750  -0.2747   0.16671   0.16252  -0.0400  1.0000  0.0337  -1.4139   0.0000   0.0729
 -13.500  -0.2794   0.16546   0.16134  -0.0391  1.0000  0.0339  -1.4590   0.0000   0.0800
 -13.250  -0.2792   0.16370   0.15962  -0.0372  1.0000  0.0343  -1.4139   0.0000   0.0875
 -13.000  -0.2814   0.16234   0.15831  -0.0355  1.0000  0.0348  -1.3984   0.0000   0.0953
 -12.750  -0.2845   0.16104   0.15706  -0.0340  1.0000  0.0354  -1.3962   0.0000   0.1030
 -12.500  -0.2881   0.15971   0.15578  -0.0327  1.0000  0.0360  -1.4034   0.0000   0.1102
 -12.250  -0.2924   0.15838   0.15450  -0.0315  1.0000  0.0366  -1.4239   0.0000   0.1170
 -12.000  -0.2867   0.15567   0.15181  -0.0348  0.9983  0.0371  -1.4897   0.0000   0.1034
 -11.750  -0.2676   0.15159   0.14772  -0.0379  0.9958  0.0377  -1.4295   0.0000   0.0814
 -11.500  -0.2498   0.14798   0.14410  -0.0417  0.9932  0.0388  -1.3945   0.0000   0.0548
 -11.250  -0.2343   0.14431   0.14043  -0.0458  0.9899  0.0400  -1.4087   0.0000   0.0248
  -9.500  -0.1317   0.11914   0.11526  -0.0710  0.9654  0.0476  -1.4388   0.0000  -0.3365
  -9.250  -0.1269   0.11596   0.11209  -0.0762  0.9600  0.0490  -1.5489   0.0000  -0.3987
  -9.000  -0.1051   0.11194   0.10806  -0.0785  0.9577  0.0500  -1.4749   0.0000  -0.5541
  -8.750  -0.0923   0.10891   0.10504  -0.0806  0.9526  0.0518  -1.4515   0.0000  -0.6876
  -8.500  -0.0891   0.10579   0.10193  -0.0858  0.9465  0.0536  -1.5624   0.0000  -0.7783
  -8.250  -0.0668   0.10198   0.09812  -0.0877  0.9440  0.0551  -1.4795   0.0000  -1.1469
  -8.000  -0.0561   0.09913   0.09528  -0.0898  0.9382  0.0574  -1.4702   0.0000  -1.4507
  -7.750  -0.0625   0.09617   0.09237  -0.0961  0.9298  0.0589  -1.6509   0.0000  -1.3718
  -6.250  -0.0058   0.07798   0.07425  -0.1081  0.8931  0.0712  -1.6137   0.0000  -19.1610
  -4.500   0.1766   0.03486   0.02900  -0.1631  0.8536  0.0488  -2.5477   0.0000   1.1939
  -4.250   0.2338   0.02963   0.02273  -0.1699  0.8531  0.0446  -2.6677   0.0000   0.9920
  -3.500   0.3388   0.02505   0.01728  -0.1743  0.8401  0.0539  -2.3809   0.0000   0.7734
  -3.250   0.3796   0.02370   0.01595  -0.1765  0.8376  0.0616  -2.2151   0.0000   0.7225
  -3.000   0.4244   0.02236   0.01457  -0.1794  0.8362  0.0760  -2.0408   0.0000   0.6788
  -2.750   0.4511   0.02179   0.01410  -0.1793  0.8296  0.0939  -1.8959   0.0000   0.6528
  -2.500   0.4957   0.02062   0.01309  -0.1823  0.8278  0.1374  -1.6916   0.0000   0.6222
  -2.250   0.5241   0.02013   0.01284  -0.1828  0.8213  0.2004  -1.5320   0.0000   0.6024
  -2.000   0.5671   0.01921   0.01224  -0.1856  0.8191  0.3025  -1.3121   0.0000   0.5802
  -1.750   0.5940   0.01903   0.01228  -0.1856  0.8124  0.3824  -1.1406   0.0000   0.5647
  -1.500   0.6251   0.01874   0.01217  -0.1860  0.8073  0.4631  -0.9586   0.0000   0.5493
  -1.250   0.6590   0.01836   0.01193  -0.1867  0.8030  0.5396  -0.9005   0.0000   0.5345
  -1.000   0.6847   0.01828   0.01196  -0.1859  0.7965  0.6021  -0.9219   0.0000   0.5222
  -0.750   0.7203   0.01781   0.01156  -0.1866  0.7933  0.6680  -0.9505   0.0000   0.5093
  -0.500   0.7420   0.01777   0.01162  -0.1850  0.7862  0.7223  -0.9705   0.0000   0.4990
  -0.250   0.7628   0.01766   0.01161  -0.1830  0.7795  0.7780  -0.9906   0.0000   0.4892
   0.000   0.7829   0.01738   0.01139  -0.1805  0.7738  0.8424  -1.0112   0.0000   0.4795
   0.250   0.8040   0.01683   0.01089  -0.1781  0.7683  1.0000  -1.0331   0.0000   0.4700
   0.500   0.8366   0.01692   0.01081  -0.1794  0.7612  1.0000  -1.0614   0.0000   0.4625
   0.750   0.8684   0.01695   0.01070  -0.1802  0.7545  1.0000  -1.0901   0.0000   0.4552
   1.000   0.9028   0.01687   0.01047  -0.1814  0.7487  1.0000  -1.1216   0.0000   0.4482
   1.250   0.9365   0.01679   0.01025  -0.1824  0.7427  1.0000  -1.1537   0.0000   0.4416
   1.500   0.9650   0.01687   0.01024  -0.1825  0.7351  1.0000  -1.1825   0.0000   0.4356
   1.750   0.9937   0.01694   0.01022  -0.1826  0.7276  1.0000  -1.2122   0.0000   0.4298
   2.000   1.0228   0.01699   0.01019  -0.1827  0.7202  1.0000  -1.2430   0.0000   0.4244
   2.250   1.0521   0.01702   0.01015  -0.1829  0.7127  1.0000  -1.2748   0.0000   0.4192
   2.500   1.0816   0.01705   0.01010  -0.1831  0.7052  1.0000  -1.3076   0.0000   0.4143
   2.750   1.1111   0.01708   0.01006  -0.1833  0.6976  1.0000  -1.3414   0.0000   0.4096
   3.000   1.1401   0.01712   0.01003  -0.1834  0.6897  1.0000  -1.3758   0.0000   0.4051
   3.250   1.1683   0.01718   0.01005  -0.1834  0.6815  1.0000  -1.4105   0.0000   0.4008
   3.500   1.1955   0.01727   0.01009  -0.1832  0.6729  1.0000  -1.4456   0.0000   0.3967
   3.750   1.2221   0.01738   0.01017  -0.1829  0.6639  1.0000  -1.4812   0.0000   0.3928
   4.000   1.2483   0.01751   0.01027  -0.1825  0.6547  1.0000  -1.5179   0.0000   0.3890
   4.250   1.2744   0.01764   0.01037  -0.1822  0.6454  1.0000  -1.5559   0.0000   0.3853
   4.500   1.3005   0.01777   0.01048  -0.1818  0.6359  1.0000  -1.5953   0.0000   0.3817
   4.750   1.3267   0.01791   0.01059  -0.1814  0.6263  1.0000  -1.6367   0.0000   0.3783
   5.000   1.3530   0.01806   0.01070  -0.1811  0.6166  1.0000  -1.6802   0.0000   0.3750
   5.250   1.3797   0.01821   0.01081  -0.1808  0.6069  1.0000  -1.7257   0.0000   0.3718
   5.500   1.4017   0.01847   0.01109  -0.1798  0.5960  1.0000  -1.7680   0.0000   0.3686
   5.750   1.4252   0.01871   0.01133  -0.1790  0.5852  1.0000  -1.8137   0.0000   0.3656
   6.000   1.4497   0.01894   0.01153  -0.1784  0.5746  1.0000  -1.8629   0.0000   0.3626
   6.250   1.4739   0.01919   0.01176  -0.1777  0.5640  1.0000  -1.9137   0.0000   0.3597
   6.500   1.4942   0.01953   0.01212  -0.1764  0.5523  1.0000  -1.9620   0.0000   0.3568
   6.750   1.5167   0.01984   0.01241  -0.1755  0.5412  1.0000  -2.0155   0.0000   0.3540
   7.000   1.5393   0.02016   0.01272  -0.1746  0.5301  1.0000  -2.0720   0.0000   0.3513
   7.250   1.5578   0.02057   0.01316  -0.1730  0.5182  1.0000  -2.1253   0.0000   0.3485
   7.500   1.5788   0.02094   0.01352  -0.1719  0.5069  1.0000  -2.1847   0.0000   0.3459
   7.750   1.5979   0.02137   0.01395  -0.1704  0.4954  1.0000  -2.2446   0.0000   0.3432
   8.000   1.6150   0.02183   0.01445  -0.1686  0.4837  1.0000  -2.3048   0.0000   0.3406
   8.250   1.6344   0.02228   0.01488  -0.1673  0.4724  1.0000  -2.3714   0.0000   0.3381
   8.500   1.6493   0.02281   0.01545  -0.1652  0.4608  1.0000  -2.4337   0.0000   0.3354
   8.750   1.6634   0.02334   0.01600  -0.1629  0.4493  1.0000  -2.4986   0.0000   0.3328
   9.000   1.6796   0.02387   0.01651  -0.1611  0.4383  1.0000  -2.5717   0.0000   0.3303
   9.250   1.6896   0.02450   0.01721  -0.1582  0.4269  1.0000  -2.6365   0.0000   0.3276
   9.500   1.7008   0.02516   0.01790  -0.1556  0.4157  1.0000  -2.7062   0.0000   0.3250
   9.750   1.7139   0.02582   0.01855  -0.1534  0.4048  1.0000  -2.7832   0.0000   0.3225
  10.000   1.7215   0.02661   0.01941  -0.1504  0.3935  1.0000  -2.8541   0.0000   0.3199
  10.250   1.7298   0.02744   0.02028  -0.1477  0.3824  1.0000  -2.9305   0.0000   0.3174
  10.500   1.7397   0.02828   0.02113  -0.1452  0.3716  1.0000  -3.0137   0.0000   0.3151
  10.750   1.7456   0.02927   0.02218  -0.1423  0.3605  1.0000  -3.0911   0.0000   0.3126
  11.000   1.7511   0.03033   0.02331  -0.1395  0.3495  1.0000  -3.1760   0.0000   0.3102
  11.250   1.7579   0.03141   0.02441  -0.1369  0.3387  1.0000  -3.2716   0.0000   0.3080
  11.500   1.7621   0.03265   0.02571  -0.1342  0.3278  1.0000  -3.3627   0.0000   0.3057
  11.750   1.7650   0.03402   0.02714  -0.1314  0.3167  1.0000  -3.4535   0.0000   0.3035
  12.000   1.7690   0.03540   0.02856  -0.1289  0.3060  1.0000  -3.5761   0.0000   0.3014
  12.250   1.7713   0.03695   0.03017  -0.1264  0.2953  1.0000  -3.7358   0.0000   0.2994
  12.500   1.7719   0.03867   0.03197  -0.1239  0.2844  1.0000  -3.8884   0.0000   0.2974
  12.750   1.7733   0.04043   0.03376  -0.1216  0.2739  1.0000  -4.0479   0.0000   0.2955
  13.000   1.7739   0.04232   0.03570  -0.1193  0.2635  1.0000  -4.2047   0.0000   0.2937
  13.250   1.7724   0.04445   0.03791  -0.1171  0.2529  1.0000  -4.3510   0.0000   0.2919
  13.500   1.7715   0.04663   0.04015  -0.1151  0.2427  1.0000  -4.5025   0.0000   0.2903
  13.750   1.7711   0.04886   0.04238  -0.1133  0.2329  1.0000  -4.6592   0.0000   0.2887
  14.000   1.7678   0.05146   0.04509  -0.1116  0.2227  1.0000  -4.7981   0.0000   0.2872
  14.250   1.7650   0.05413   0.04783  -0.1100  0.2129  1.0000  -4.9410   0.0000   0.2858
  14.500   1.7622   0.05688   0.05062  -0.1086  0.2035  1.0000  -5.0860   0.0000   0.2845
  14.750   1.7597   0.05970   0.05346  -0.1074  0.1945  1.0000  -5.2338   0.0000   0.2833
  15.000   1.7552   0.06287   0.05672  -0.1063  0.1854  1.0000  -5.3675   0.0000   0.2822


