xflr5 v6.10.04

 Calculated polar for: MH 114  13.02%

 1 1 Reynolds number fixed          Mach number fixed         

 xtrf =   1.000 (top)        1.000 (bottom)
 Mach =   0.030     Re =     0.100 e 6     Ncrit =   9.000

  alpha     CL        CD       CDp       Cm    Top Xtr Bot Xtr   Cpmin    Chinge    XCp    
 ------- -------- --------- --------- -------- ------- ------- -------- --------- ---------
 -15.000  -0.2733   0.17666   0.17123  -0.0452  1.0000  0.0452  -1.3407   0.0000   0.0489
 -14.750  -0.2692   0.17452   0.16914  -0.0448  1.0000  0.0460  -1.3194   0.0000   0.0484
 -14.500  -0.2667   0.17263   0.16729  -0.0443  1.0000  0.0469  -1.3141   0.0000   0.0489
 -14.250  -0.2654   0.17087   0.16559  -0.0439  1.0000  0.0478  -1.3202   0.0000   0.0505
 -14.000  -0.2662   0.16937   0.16414  -0.0435  1.0000  0.0486  -1.3441   0.0000   0.0534
 -13.750  -0.2701   0.16838   0.16322  -0.0432  1.0000  0.0490  -1.3903   0.0000   0.0581
 -13.500  -0.2688   0.16615   0.16105  -0.0419  1.0000  0.0494  -1.3712   0.0000   0.0629
 -13.250  -0.2679   0.16432   0.15927  -0.0403  1.0000  0.0502  -1.3452   0.0000   0.0687
 -13.000  -0.2693   0.16283   0.15784  -0.0390  1.0000  0.0511  -1.3381   0.0000   0.0754
 -12.750  -0.2719   0.16145   0.15652  -0.0377  1.0000  0.0521  -1.3424   0.0000   0.0827
 -12.000  -0.2694   0.16699   0.16260  -0.0290  1.0000  0.0545  -1.2582   0.0000   0.1210
 -11.750  -0.2707   0.16521   0.16086  -0.0278  1.0000  0.0554  -1.2444   0.0000   0.1263
 -11.500  -0.2735   0.16352   0.15921  -0.0269  1.0000  0.0565  -1.2519   0.0000   0.1313
 -11.250  -0.2773   0.16186   0.15758  -0.0262  1.0000  0.0576  -1.2723   0.0000   0.1359
 -11.000  -0.2838   0.16039   0.15616  -0.0259  1.0000  0.0585  -1.3170   0.0000   0.1399
  -8.500  -0.2195   0.12426   0.11994  -0.0489  0.9724  0.0731  -1.4577   0.0000   0.0032
  -8.250  -0.2110   0.12146   0.11715  -0.0521  0.9670  0.0759  -1.4770   0.0000  -0.0215
  -8.000  -0.2190   0.11984   0.11559  -0.0573  0.9597  0.0770  -1.6038   0.0000  -0.0343
  -7.750  -0.1870   0.11500   0.11072  -0.0577  0.9573  0.0797  -1.4705   0.0000  -0.0850
  -7.500  -0.1824   0.11255   0.10828  -0.0601  0.9509  0.0827  -1.4915   0.0000  -0.1057
  -7.250  -0.1961   0.11123   0.10702  -0.0645  0.9428  0.0839  -1.6234   0.0000  -0.1023
  -7.000  -0.1704   0.10716   0.10295  -0.0628  0.9383  0.0864  -1.4942   0.0000  -0.1454
  -6.750  -0.1686   0.10500   0.10081  -0.0641  0.9315  0.0895  -1.5084   0.0000  -0.1565
  -6.500  -0.1876   0.10398   0.09986  -0.0662  0.9219  0.0910  -1.6184   0.0000  -0.1252
  -6.250  -0.1616   0.10006   0.09592  -0.0664  0.9187  0.0939  -1.5200   0.0000  -0.1864
  -6.000  -0.1624   0.09779   0.09369  -0.0690  0.9108  0.0977  -1.5563   0.0000  -0.1990
  -3.500   0.1064   0.04535   0.03903  -0.1416  0.8500  0.0714  -2.2948   0.0000   1.6091
  -3.250   0.1609   0.04118   0.03410  -0.1479  0.8466  0.0679  -2.3313   0.0000   1.1871
  -3.000   0.2209   0.03793   0.02985  -0.1538  0.8445  0.0704  -2.3253   0.0000   0.9588
  -2.750   0.2505   0.03691   0.02870  -0.1546  0.8378  0.0756  -2.2298   0.0000   0.8774
  -2.250   0.3288   0.03458   0.02607  -0.1585  0.8283  0.1000  -1.9890   0.0000   0.7386
  -2.000   0.3591   0.03404   0.02555  -0.1591  0.8217  0.1224  -1.8605   0.0000   0.6986
  -1.750   0.4071   0.03279   0.02455  -0.1624  0.8189  0.1753  -1.6814   0.0000   0.6532
  -1.500   0.4362   0.03238   0.02450  -0.1632  0.8118  0.2505  -1.5359   0.0000   0.6275
  -1.250   0.4669   0.03206   0.02461  -0.1641  0.8051  0.3604  -1.3664   0.0000   0.6041
  -1.000   0.5105   0.03133   0.02427  -0.1662  0.8020  0.4921  -1.1445   0.0000   0.5774
  -0.750   0.5341   0.03143   0.02460  -0.1652  0.7945  0.5814  -0.9890   0.0000   0.5606
  -0.500   0.5561   0.03152   0.02486  -0.1637  0.7872  0.6643  -0.8412   0.0000   0.5451
  -0.250   0.5758   0.03148   0.02498  -0.1614  0.7802  0.7473  -0.8439   0.0000   0.5306
   0.000   0.5970   0.03057   0.02426  -0.1580  0.7766  0.8617  -0.8655   0.0000   0.5144
   0.250   0.6220   0.03057   0.02413  -0.1577  0.7686  1.0000  -0.8861   0.0000   0.5028
   0.750   0.6841   0.03112   0.02423  -0.1596  0.7540  1.0000  -0.9373   0.0000   0.4815
   1.000   0.7314   0.03041   0.02330  -0.1621  0.7515  1.0000  -0.9774   0.0000   0.4694
   1.250   0.7592   0.03065   0.02341  -0.1622  0.7439  1.0000  -1.0028   0.0000   0.4609
   1.500   0.7880   0.03082   0.02345  -0.1623  0.7366  1.0000  -1.0297   0.0000   0.4529
   1.750   0.8371   0.02987   0.02236  -0.1649  0.7345  1.0000  -1.0743   0.0000   0.4435
   2.000   0.8646   0.03004   0.02243  -0.1648  0.7269  1.0000  -1.1020   0.0000   0.4367
   2.250   0.8933   0.03012   0.02243  -0.1648  0.7196  1.0000  -1.1313   0.0000   0.4302
   2.500   0.9445   0.02908   0.02129  -0.1677  0.7174  1.0000  -1.1805   0.0000   0.4229
   2.750   0.9723   0.02915   0.02130  -0.1676  0.7097  1.0000  -1.2109   0.0000   0.4173
   3.000   1.0012   0.02915   0.02126  -0.1675  0.7022  1.0000  -1.2433   0.0000   0.4118
   3.250   1.0325   0.02902   0.02109  -0.1677  0.6952  1.0000  -1.2788   0.0000   0.4066
   3.500   1.0814   0.02798   0.01998  -0.1703  0.6919  1.0000  -1.3310   0.0000   0.4013
   3.750   1.1103   0.02794   0.01992  -0.1702  0.6841  1.0000  -1.3668   0.0000   0.3967
   4.000   1.1400   0.02785   0.01981  -0.1702  0.6763  1.0000  -1.4045   0.0000   0.3923
   4.250   1.1705   0.02773   0.01968  -0.1703  0.6684  1.0000  -1.4443   0.0000   0.3882
   4.500   1.2015   0.02757   0.01951  -0.1705  0.6606  1.0000  -1.4862   0.0000   0.3842
   4.750   1.2329   0.02740   0.01933  -0.1707  0.6526  1.0000  -1.5300   0.0000   0.3804
   5.000   1.2641   0.02724   0.01917  -0.1710  0.6443  1.0000  -1.5756   0.0000   0.3767
   5.250   1.2949   0.02711   0.01903  -0.1711  0.6358  1.0000  -1.6227   0.0000   0.3732
   5.500   1.3254   0.02699   0.01892  -0.1713  0.6270  1.0000  -1.6714   0.0000   0.3699
   5.750   1.3559   0.02689   0.01882  -0.1714  0.6180  1.0000  -1.7221   0.0000   0.3667
   6.000   1.3865   0.02679   0.01872  -0.1715  0.6087  1.0000  -1.7753   0.0000   0.3636
   6.250   1.4178   0.02669   0.01862  -0.1718  0.5993  1.0000  -1.8316   0.0000   0.3606
   6.500   1.4472   0.02668   0.01861  -0.1718  0.5895  1.0000  -1.8884   0.0000   0.3578
   6.750   1.4659   0.02710   0.01908  -0.1703  0.5781  1.0000  -1.9345   0.0000   0.3548
   7.000   1.4923   0.02722   0.01922  -0.1698  0.5675  1.0000  -1.9930   0.0000   0.3520
   7.250   1.5221   0.02724   0.01923  -0.1699  0.5571  1.0000  -2.0590   0.0000   0.3494
   7.500   1.5433   0.02759   0.01962  -0.1687  0.5457  1.0000  -2.1161   0.0000   0.3466
   7.750   1.5648   0.02793   0.02000  -0.1676  0.5342  1.0000  -2.1764   0.0000   0.3440
   8.000   1.5927   0.02807   0.02013  -0.1674  0.5231  1.0000  -2.2498   0.0000   0.3415
   8.250   1.6101   0.02858   0.02070  -0.1657  0.5112  1.0000  -2.3109   0.0000   0.3389
   8.500   1.6311   0.02897   0.02112  -0.1645  0.4995  1.0000  -2.3809   0.0000   0.3364
   8.750   1.6555   0.02928   0.02142  -0.1639  0.4879  1.0000  -2.4608   0.0000   0.3341
   9.000   1.6687   0.02993   0.02217  -0.1616  0.4758  1.0000  -2.5261   0.0000   0.3314
   9.250   1.6921   0.03029   0.02251  -0.1608  0.4640  1.0000  -2.6142   0.0000   0.3291
   9.500   1.7040   0.03099   0.02330  -0.1583  0.4519  1.0000  -2.6842   0.0000   0.3266
   9.750   1.7206   0.03156   0.02389  -0.1565  0.4399  1.0000  -2.7674   0.0000   0.3242
  10.000   1.7354   0.03216   0.02453  -0.1545  0.4281  1.0000  -2.8533   0.0000   0.3217
  10.250   1.7434   0.03295   0.02539  -0.1514  0.4163  1.0000  -2.9287   0.0000   0.3191
  10.500   1.7626   0.03347   0.02588  -0.1501  0.4043  1.0000  -3.0349   0.0000   0.3169
  10.750   1.7637   0.03450   0.02704  -0.1462  0.3929  1.0000  -3.1013   0.0000   0.3142
  11.000   1.7735   0.03532   0.02789  -0.1437  0.3811  1.0000  -3.2007   0.0000   0.3118
  11.250   1.7815   0.03624   0.02885  -0.1409  0.3695  1.0000  -3.3007   0.0000   0.3094
  11.500   1.7835   0.03741   0.03011  -0.1375  0.3580  1.0000  -3.3863   0.0000   0.3069
  11.750   1.7950   0.03826   0.03096  -0.1354  0.3463  1.0000  -3.5064   0.0000   0.3047
  12.000   1.7926   0.03973   0.03254  -0.1318  0.3351  1.0000  -3.6235   0.0000   0.3023
  12.250   1.7947   0.04107   0.03395  -0.1289  0.3238  1.0000  -3.7748   0.0000   0.3001
  12.500   1.8008   0.04230   0.03519  -0.1265  0.3124  1.0000  -3.9547   0.0000   0.2979
  12.750   1.7965   0.04412   0.03713  -0.1232  0.3016  1.0000  -4.0814   0.0000   0.2958
  13.000   1.7976   0.04573   0.03879  -0.1206  0.2905  1.0000  -4.2412   0.0000   0.2937
  13.250   1.7991   0.04740   0.04049  -0.1182  0.2796  1.0000  -4.4050   0.0000   0.2918
  13.500   1.7936   0.04960   0.04281  -0.1154  0.2691  1.0000  -4.5286   0.0000   0.2899
  13.750   1.7922   0.05162   0.04488  -0.1131  0.2586  1.0000  -4.6781   0.0000   0.2881
  14.000   1.7933   0.05353   0.04680  -0.1111  0.2481  1.0000  -4.8449   0.0000   0.2863
  14.250   1.7858   0.05620   0.04960  -0.1088  0.2382  1.0000  -4.9582   0.0000   0.2847
  14.500   1.7808   0.05878   0.05227  -0.1069  0.2284  1.0000  -5.0874   0.0000   0.2832
  14.750   1.7786   0.06119   0.05472  -0.1052  0.2187  1.0000  -5.2364   0.0000   0.2818
  15.000   1.7768   0.06367   0.05722  -0.1037  0.2091  1.0000  -5.3885   0.0000   0.2804


