xflr5 v6.10.04

 Calculated polar for: MH 114  13.02%

 1 1 Reynolds number fixed          Mach number fixed         

 xtrf =   1.000 (top)        1.000 (bottom)
 Mach =   0.030     Re =     0.200 e 6     Ncrit =   9.000

  alpha     CL        CD       CDp       Cm    Top Xtr Bot Xtr   Cpmin    Chinge    XCp    
 ------- -------- --------- --------- -------- ------- ------- -------- --------- ---------
 -15.000  -0.2768   0.17454   0.17071  -0.0424  1.0000  0.0244  -1.3732   0.0000   0.0619
 -14.750  -0.2757   0.17272   0.16892  -0.0418  1.0000  0.0248  -1.3801   0.0000   0.0640
 -14.500  -0.2758   0.17097   0.16722  -0.0410  1.0000  0.0252  -1.3990   0.0000   0.0676
 -14.250  -0.2778   0.16935   0.16565  -0.0402  1.0000  0.0254  -1.4390   0.0000   0.0727
 -14.000  -0.2819   0.16794   0.16430  -0.0393  1.0000  0.0256  -1.4950   0.0000   0.0792
 -13.750  -0.2823   0.16636   0.16276  -0.0375  1.0000  0.0258  -1.4521   0.0000   0.0868
 -13.500  -0.2847   0.16506   0.16151  -0.0358  1.0000  0.0261  -1.4337   0.0000   0.0948
 -13.250  -0.2878   0.16380   0.16030  -0.0342  1.0000  0.0264  -1.4278   0.0000   0.1028
 -13.000  -0.2795   0.16111   0.15762  -0.0358  0.9989  0.0270  -1.4216   0.0000   0.0930
 -12.750  -0.2630   0.15722   0.15372  -0.0404  0.9967  0.0278  -1.4409   0.0000   0.0662
 -12.500  -0.2480   0.15321   0.14972  -0.0451  0.9943  0.0282  -1.4825   0.0000   0.0367
 -12.250  -0.2296   0.14961   0.14610  -0.0483  0.9924  0.0289  -1.4138   0.0000   0.0058
 -12.000  -0.2136   0.14594   0.14243  -0.0520  0.9895  0.0298  -1.3957   0.0000  -0.0293
 -11.750  -0.1986   0.14205   0.13853  -0.0568  0.9874  0.0307  -1.4382   0.0000  -0.0739
 -11.500  -0.1845   0.13817   0.13466  -0.0604  0.9841  0.0311  -1.4586   0.0000  -0.1179
 -11.250  -0.1662   0.13454   0.13102  -0.0637  0.9823  0.0318  -1.4098   0.0000  -0.1777
 -11.000  -0.1518   0.13099   0.12747  -0.0670  0.9786  0.0327  -1.4078   0.0000  -0.2387
 -10.750  -0.1379   0.12700   0.12347  -0.0722  0.9764  0.0338  -1.4844   0.0000  -0.3253
 -10.500  -0.1245   0.12330   0.11978  -0.0750  0.9723  0.0342  -1.4845   0.0000  -0.4090
 -10.250  -0.1056   0.11967   0.11614  -0.0783  0.9705  0.0351  -1.4348   0.0000  -0.5574
 -10.000  -0.0926   0.11625   0.11272  -0.0814  0.9660  0.0363  -1.4425   0.0000  -0.7023
  -9.750  -0.0860   0.11234   0.10882  -0.0876  0.9618  0.0372  -1.5955   0.0000  -0.8468
  -9.500  -0.0645   0.10877   0.10524  -0.0888  0.9591  0.0379  -1.4813   0.0000  -1.2302
  -9.250  -0.0453   0.10508   0.10155  -0.0928  0.9572  0.0392  -1.4558   0.0000  -1.9410
  -9.000  -0.0382   0.10142   0.09790  -0.0977  0.9515  0.0407  -1.5625   0.0000  -2.4730
  -8.750  -0.0218   0.09784   0.09432  -0.1001  0.9478  0.0413  -1.5250   0.0000  -4.6354
  -8.500  -0.0032   0.09452   0.09100  -0.1031  0.9446  0.0427  -1.4775   0.0000  -34.2112
  -5.000   0.2413   0.02548   0.01934  -0.1818  0.8633  0.0337  -2.9185   0.0000   1.0208
  -4.750   0.2808   0.02338   0.01696  -0.1847  0.8612  0.0351  -2.7964   0.0000   0.9220
  -4.500   0.3075   0.02183   0.01503  -0.1847  0.8550  0.0358  -2.7506   0.0000   0.8632
  -4.250   0.3470   0.02010   0.01295  -0.1869  0.8527  0.0379  -2.6521   0.0000   0.7991
  -4.000   0.3728   0.01929   0.01199  -0.1865  0.8463  0.0412  -2.5366   0.0000   0.7594
  -3.750   0.4039   0.01839   0.01108  -0.1871  0.8418  0.0458  -2.3851   0.0000   0.7211
  -3.500   0.4362   0.01760   0.01023  -0.1878  0.8373  0.0534  -2.2294   0.0000   0.6874
  -3.250   0.4654   0.01696   0.00961  -0.1881  0.8318  0.0647  -2.0710   0.0000   0.6601
  -3.000   0.5006   0.01617   0.00891  -0.1896  0.8280  0.0856  -1.8813   0.0000   0.6338
  -2.750   0.5290   0.01568   0.00855  -0.1899  0.8219  0.1189  -1.7044   0.0000   0.6132
  -2.500   0.5640   0.01503   0.00809  -0.1914  0.8179  0.1838  -1.5097   0.0000   0.5930
  -2.250   0.5932   0.01467   0.00795  -0.1919  0.8118  0.2568  -1.3278   0.0000   0.5765
  -2.000   0.6220   0.01443   0.00787  -0.1922  0.8059  0.3289  -1.1474   0.0000   0.5614
  -1.750   0.6559   0.01409   0.00766  -0.1933  0.8018  0.4045  -0.9548   0.0000   0.5465
  -1.500   0.6824   0.01399   0.00770  -0.1930  0.7950  0.4691  -0.9169   0.0000   0.5341
  -1.250   0.7099   0.01389   0.00771  -0.1928  0.7887  0.5300  -0.9391   0.0000   0.5224
  -1.000   0.7405   0.01372   0.00760  -0.1930  0.7837  0.5882  -0.9639   0.0000   0.5110
  -0.750   0.7672   0.01364   0.00760  -0.1925  0.7773  0.6400  -0.9869   0.0000   0.5008
  -0.500   0.7921   0.01359   0.00763  -0.1916  0.7706  0.6888  -1.0092   0.0000   0.4914
  -0.250   0.8173   0.01350   0.00761  -0.1907  0.7643  0.7377  -1.0324   0.0000   0.4824
   0.000   0.8435   0.01333   0.00747  -0.1898  0.7590  0.7887  -1.0570   0.0000   0.4737
   0.250   0.8616   0.01324   0.00746  -0.1873  0.7517  0.8439  -1.0770   0.0000   0.4656
   0.500   0.8756   0.01301   0.00732  -0.1838  0.7446  0.9342  -1.0948   0.0000   0.4578
   0.750   0.9085   0.01300   0.00719  -0.1849  0.7376  1.0000  -1.1246   0.0000   0.4510
   1.000   0.9394   0.01306   0.00712  -0.1856  0.7308  1.0000  -1.1540   0.0000   0.4447
   1.250   0.9706   0.01310   0.00703  -0.1863  0.7242  1.0000  -1.1844   0.0000   0.4386
   1.500   1.0000   0.01317   0.00700  -0.1866  0.7170  1.0000  -1.2144   0.0000   0.4329
   1.750   1.0277   0.01327   0.00703  -0.1866  0.7092  1.0000  -1.2439   0.0000   0.4275
   2.000   1.0554   0.01338   0.00706  -0.1865  0.7013  1.0000  -1.2740   0.0000   0.4223
   2.250   1.0828   0.01348   0.00709  -0.1865  0.6932  1.0000  -1.3048   0.0000   0.4174
   2.500   1.1101   0.01359   0.00714  -0.1864  0.6851  1.0000  -1.3362   0.0000   0.4127
   2.750   1.1372   0.01370   0.00719  -0.1862  0.6768  1.0000  -1.3685   0.0000   0.4082
   3.000   1.1640   0.01382   0.00726  -0.1860  0.6683  1.0000  -1.4015   0.0000   0.4039
   3.250   1.1906   0.01395   0.00733  -0.1858  0.6596  1.0000  -1.4353   0.0000   0.3997
   3.500   1.2170   0.01408   0.00742  -0.1855  0.6507  1.0000  -1.4700   0.0000   0.3957
   3.750   1.2432   0.01422   0.00752  -0.1852  0.6417  1.0000  -1.5058   0.0000   0.3919
   4.000   1.2694   0.01438   0.00762  -0.1848  0.6325  1.0000  -1.5430   0.0000   0.3882
   4.250   1.2942   0.01456   0.00777  -0.1843  0.6228  1.0000  -1.5804   0.0000   0.3846
   4.500   1.3181   0.01476   0.00796  -0.1836  0.6126  1.0000  -1.6183   0.0000   0.3811
   4.750   1.3422   0.01497   0.00815  -0.1829  0.6024  1.0000  -1.6582   0.0000   0.3777
   5.000   1.3665   0.01518   0.00833  -0.1823  0.5921  1.0000  -1.7001   0.0000   0.3744
   5.250   1.3910   0.01541   0.00851  -0.1817  0.5820  1.0000  -1.7438   0.0000   0.3713
   5.500   1.4133   0.01567   0.00877  -0.1807  0.5710  1.0000  -1.7870   0.0000   0.3681
   5.750   1.4354   0.01595   0.00904  -0.1797  0.5599  1.0000  -1.8318   0.0000   0.3650
   6.000   1.4580   0.01623   0.00929  -0.1788  0.5491  1.0000  -1.8794   0.0000   0.3621
   6.250   1.4797   0.01654   0.00959  -0.1778  0.5380  1.0000  -1.9278   0.0000   0.3592
   6.500   1.4998   0.01688   0.00993  -0.1764  0.5264  1.0000  -1.9763   0.0000   0.3563
   6.750   1.5206   0.01723   0.01026  -0.1752  0.5153  1.0000  -2.0283   0.0000   0.3535
   7.000   1.5402   0.01760   0.01062  -0.1739  0.5040  1.0000  -2.0815   0.0000   0.3507
   7.250   1.5583   0.01800   0.01103  -0.1722  0.4924  1.0000  -2.1347   0.0000   0.3479
   7.500   1.5769   0.01842   0.01143  -0.1707  0.4813  1.0000  -2.1911   0.0000   0.3452
   7.750   1.5935   0.01886   0.01188  -0.1688  0.4700  1.0000  -2.2476   0.0000   0.3425
   8.000   1.6080   0.01932   0.01236  -0.1666  0.4587  1.0000  -2.3043   0.0000   0.3397
   8.250   1.6231   0.01982   0.01284  -0.1645  0.4478  1.0000  -2.3642   0.0000   0.3370
   8.500   1.6373   0.02035   0.01338  -0.1623  0.4369  1.0000  -2.4252   0.0000   0.3343
   8.750   1.6496   0.02093   0.01399  -0.1598  0.4257  1.0000  -2.4861   0.0000   0.3317
   9.000   1.6622   0.02154   0.01462  -0.1575  0.4148  1.0000  -2.5522   0.0000   0.3291
   9.250   1.6750   0.02219   0.01526  -0.1552  0.4043  1.0000  -2.6215   0.0000   0.3265
   9.500   1.6849   0.02292   0.01604  -0.1526  0.3931  1.0000  -2.6879   0.0000   0.3240
   9.750   1.6950   0.02369   0.01684  -0.1501  0.3823  1.0000  -2.7579   0.0000   0.3215
  10.000   1.7053   0.02451   0.01767  -0.1477  0.3717  1.0000  -2.8329   0.0000   0.3191
  10.250   1.7141   0.02541   0.01861  -0.1452  0.3610  1.0000  -2.9094   0.0000   0.3167
  10.500   1.7219   0.02639   0.01964  -0.1426  0.3500  1.0000  -2.9866   0.0000   0.3143
  10.750   1.7296   0.02743   0.02071  -0.1402  0.3394  1.0000  -3.0669   0.0000   0.3121
  11.000   1.7369   0.02855   0.02185  -0.1378  0.3290  1.0000  -3.1526   0.0000   0.3098
  11.250   1.7426   0.02978   0.02316  -0.1353  0.3179  1.0000  -3.2438   0.0000   0.3077
  11.500   1.7480   0.03110   0.02451  -0.1329  0.3072  1.0000  -3.3380   0.0000   0.3055
  11.750   1.7530   0.03251   0.02593  -0.1306  0.2969  1.0000  -3.4346   0.0000   0.3035
  12.000   1.7568   0.03405   0.02755  -0.1284  0.2859  1.0000  -3.5512   0.0000   0.3015
  12.250   1.7600   0.03570   0.02925  -0.1262  0.2752  1.0000  -3.7157   0.0000   0.2996
  12.500   1.7626   0.03746   0.03102  -0.1240  0.2649  1.0000  -3.8801   0.0000   0.2977
  12.750   1.7646   0.03934   0.03298  -0.1220  0.2542  1.0000  -4.0423   0.0000   0.2959
  13.000   1.7658   0.04136   0.03505  -0.1201  0.2437  1.0000  -4.2031   0.0000   0.2942
  13.250   1.7664   0.04352   0.03724  -0.1182  0.2337  1.0000  -4.3623   0.0000   0.2926
  13.750   1.7662   0.04826   0.04209  -0.1150  0.2134  1.0000  -4.6768   0.0000   0.2896
  14.000   1.7651   0.05086   0.04474  -0.1135  0.2037  1.0000  -4.8302   0.0000   0.2883
  14.250   1.7632   0.05362   0.04751  -0.1122  0.1946  1.0000  -4.9809   0.0000   0.2870
  14.500   1.7614   0.05649   0.05046  -0.1110  0.1851  1.0000  -5.1320   0.0000   0.2858
  14.750   1.7589   0.05952   0.05356  -0.1100  0.1760  1.0000  -5.2799   0.0000   0.2847
  15.000   1.7557   0.06272   0.05681  -0.1091  0.1674  1.0000  -5.4241   0.0000   0.2837


