xflr5 v6.10.04

 Calculated polar for: MH 114  13.02%

 1 1 Reynolds number fixed          Mach number fixed         

 xtrf =   1.000 (top)        1.000 (bottom)
 Mach =   0.030     Re =     0.300 e 6     Ncrit =   9.000

  alpha     CL        CD       CDp       Cm    Top Xtr Bot Xtr   Cpmin    Chinge    XCp    
 ------- -------- --------- --------- -------- ------- ------- -------- --------- ---------
 -15.000  -0.2840   0.17408   0.17097  -0.0402  1.0000  0.0175  -1.4366   0.0000   0.0742
 -14.750  -0.2841   0.17249   0.16942  -0.0392  1.0000  0.0177  -1.4304   0.0000   0.0788
 -14.500  -0.2855   0.17103   0.16800  -0.0379  1.0000  0.0179  -1.4316   0.0000   0.0850
 -14.250  -0.2881   0.16967   0.16668  -0.0364  1.0000  0.0182  -1.4384   0.0000   0.0925
 -14.000  -0.2755   0.16626   0.16328  -0.0394  0.9988  0.0186  -1.4483   0.0000   0.0749
 -13.750  -0.2598   0.16219   0.15920  -0.0440  0.9972  0.0189  -1.5072   0.0000   0.0469
 -13.500  -0.2439   0.15828   0.15529  -0.0477  0.9954  0.0191  -1.5028   0.0000   0.0188
 -13.250  -0.2271   0.15477   0.15177  -0.0512  0.9937  0.0194  -1.4494   0.0000  -0.0129
 -13.000  -0.2106   0.15114   0.14814  -0.0549  0.9922  0.0199  -1.4259   0.0000  -0.0507
 -12.750  -0.1952   0.14737   0.14436  -0.0586  0.9899  0.0204  -1.4237   0.0000  -0.0926
 -12.500  -0.1805   0.14324   0.14022  -0.0630  0.9882  0.0209  -1.4823   0.0000  -0.1450
 -12.250  -0.1659   0.13934   0.13633  -0.0666  0.9859  0.0211  -1.4853   0.0000  -0.2003
 -12.000  -0.1494   0.13587   0.13286  -0.0696  0.9838  0.0215  -1.4256   0.0000  -0.2698
 -11.750  -0.1329   0.13218   0.12916  -0.0734  0.9824  0.0221  -1.4048   0.0000  -0.3618
 -11.500  -0.1194   0.12839   0.12537  -0.0768  0.9791  0.0229  -1.4399   0.0000  -0.4590
 -11.250  -0.1058   0.12413   0.12111  -0.0813  0.9771  0.0233  -1.5194   0.0000  -0.5919
 -11.000  -0.0894   0.12087   0.11785  -0.0838  0.9743  0.0238  -1.4510   0.0000  -0.7721
 -10.750  -0.0739   0.11727   0.11424  -0.0873  0.9718  0.0246  -1.4438   0.0000  -1.0322
 -10.500  -0.0620   0.11291   0.10989  -0.0924  0.9692  0.0255  -1.5678   0.0000  -1.3606
 -10.250  -0.0465   0.10937   0.10635  -0.0950  0.9659  0.0258  -1.5319   0.0000  -1.9494
 -10.000  -0.0279   0.10590   0.10287  -0.0984  0.9643  0.0264  -1.4822   0.0000  -3.5291
  -9.750  -0.0143   0.10241   0.09939  -0.1015  0.9600  0.0273  -1.4900   0.0000  -7.3582
  -9.500  -0.0030   0.09746   0.09444  -0.1084  0.9576  0.0282  -1.6634   0.0000  -37.6057
  -8.500   0.0679   0.08295   0.07992  -0.1231  0.9448  0.0314  -1.5827   0.0000   2.1592
  -8.250   0.0877   0.07956   0.07652  -0.1270  0.9414  0.0325  -1.5451   0.0000   1.7714
  -8.000   0.0995   0.07398   0.07094  -0.1352  0.9354  0.0340  -1.7340   0.0000   1.6714
  -7.750   0.1182   0.07182   0.06876  -0.1360  0.9297  0.0347  -1.6063   0.0000   1.4515
  -7.500   0.1335   0.06862   0.06555  -0.1394  0.9228  0.0361  -1.5949   0.0000   1.3384
  -7.250   0.1370   0.06368   0.06060  -0.1453  0.9126  0.0374  -1.7671   0.0000   1.3516
  -7.000   0.1511   0.06184   0.05874  -0.1456  0.9054  0.0382  -1.6658   0.0000   1.2492
  -6.750   0.1607   0.05876   0.05564  -0.1488  0.8968  0.0397  -1.6816   0.0000   1.2081
  -5.750   0.2171   0.02386   0.01880  -0.1884  0.8613  0.0253  -3.1850   0.0000   1.1391
  -5.500   0.2423   0.02135   0.01592  -0.1892  0.8550  0.0245  -3.1862   0.0000   1.0495
  -5.250   0.2722   0.01848   0.01235  -0.1903  0.8500  0.0236  -3.2833   0.0000   0.9655
  -5.000   0.3020   0.01724   0.01089  -0.1909  0.8452  0.0241  -3.1635   0.0000   0.8962
  -4.750   0.3298   0.01622   0.00959  -0.1909  0.8396  0.0253  -3.0636   0.0000   0.8412
  -4.500   0.3605   0.01545   0.00874  -0.1916  0.8353  0.0274  -2.8823   0.0000   0.7921
  -4.250   0.3874   0.01474   0.00798  -0.1915  0.8294  0.0295  -2.7329   0.0000   0.7535
  -4.000   0.4160   0.01415   0.00734  -0.1917  0.8241  0.0329  -2.5672   0.0000   0.7188
  -3.750   0.4464   0.01356   0.00671  -0.1922  0.8193  0.0380  -2.3908   0.0000   0.6876
  -3.500   0.4743   0.01311   0.00626  -0.1923  0.8133  0.0456  -2.2141   0.0000   0.6616
  -3.250   0.5044   0.01266   0.00581  -0.1928  0.8083  0.0592  -2.0267   0.0000   0.6376
  -3.000   0.5342   0.01223   0.00544  -0.1933  0.8028  0.0819  -1.8306   0.0000   0.6165
  -2.750   0.5628   0.01185   0.00519  -0.1937  0.7969  0.1204  -1.6329   0.0000   0.5980
  -2.500   0.5930   0.01151   0.00500  -0.1943  0.7918  0.1777  -1.4353   0.0000   0.5809
  -2.250   0.6219   0.01127   0.00489  -0.1947  0.7859  0.2395  -1.2490   0.0000   0.5657
  -2.000   0.6501   0.01109   0.00484  -0.1949  0.7798  0.2999  -1.0694   0.0000   0.5518
  -1.750   0.6793   0.01093   0.00478  -0.1952  0.7743  0.3605  -0.9151   0.0000   0.5389
  -1.500   0.7082   0.01080   0.00474  -0.1955  0.7684  0.4212  -0.9378   0.0000   0.5270
  -1.250   0.7356   0.01071   0.00476  -0.1954  0.7619  0.4782  -0.9601   0.0000   0.5161
  -1.000   0.7636   0.01064   0.00477  -0.1953  0.7558  0.5314  -0.9833   0.0000   0.5059
  -0.750   0.7923   0.01057   0.00476  -0.1954  0.7501  0.5810  -1.0076   0.0000   0.4963
  -0.500   0.8190   0.01054   0.00479  -0.1950  0.7434  0.6266  -1.0311   0.0000   0.4874
  -0.250   0.8452   0.01051   0.00483  -0.1946  0.7366  0.6706  -1.0551   0.0000   0.4790
   0.000   0.8715   0.01048   0.00486  -0.1940  0.7300  0.7140  -1.0797   0.0000   0.4711
   0.250   0.8973   0.01044   0.00488  -0.1934  0.7235  0.7581  -1.1046   0.0000   0.4636
   0.500   0.9213   0.01039   0.00489  -0.1923  0.7169  0.8047  -1.1291   0.0000   0.4564
   0.750   0.9408   0.01032   0.00491  -0.1903  0.7096  0.8587  -1.1511   0.0000   0.4495
   1.000   0.9589   0.01010   0.00478  -0.1877  0.7023  1.0000  -1.1728   0.0000   0.4427
   1.250   0.9877   0.01020   0.00478  -0.1880  0.6948  1.0000  -1.2017   0.0000   0.4369
   1.500   1.0159   0.01031   0.00480  -0.1882  0.6872  1.0000  -1.2310   0.0000   0.4314
   1.750   1.0437   0.01042   0.00483  -0.1882  0.6794  1.0000  -1.2608   0.0000   0.4262
   2.000   1.0711   0.01054   0.00488  -0.1882  0.6715  1.0000  -1.2910   0.0000   0.4211
   2.250   1.0981   0.01066   0.00494  -0.1881  0.6633  1.0000  -1.3216   0.0000   0.4163
   2.500   1.1247   0.01079   0.00501  -0.1879  0.6549  1.0000  -1.3528   0.0000   0.4117
   2.750   1.1510   0.01093   0.00509  -0.1876  0.6462  1.0000  -1.3846   0.0000   0.4073
   3.000   1.1769   0.01108   0.00519  -0.1873  0.6373  1.0000  -1.4171   0.0000   0.4031
   3.250   1.2025   0.01123   0.00530  -0.1869  0.6281  1.0000  -1.4504   0.0000   0.3990
   3.500   1.2279   0.01140   0.00543  -0.1865  0.6187  1.0000  -1.4844   0.0000   0.3951
   3.750   1.2529   0.01158   0.00556  -0.1860  0.6092  1.0000  -1.5195   0.0000   0.3913
   4.000   1.2778   0.01177   0.00571  -0.1855  0.5996  1.0000  -1.5558   0.0000   0.3876
   4.250   1.3023   0.01198   0.00586  -0.1849  0.5898  1.0000  -1.5932   0.0000   0.3841
   4.500   1.3258   0.01219   0.00606  -0.1841  0.5792  1.0000  -1.6310   0.0000   0.3806
   4.750   1.3491   0.01242   0.00626  -0.1834  0.5686  1.0000  -1.6704   0.0000   0.3772
   5.000   1.3721   0.01267   0.00647  -0.1825  0.5581  1.0000  -1.7114   0.0000   0.3740
   5.250   1.3949   0.01293   0.00669  -0.1817  0.5476  1.0000  -1.7537   0.0000   0.3708
   5.500   1.4165   0.01320   0.00695  -0.1806  0.5363  1.0000  -1.7964   0.0000   0.3676
   5.750   1.4378   0.01350   0.00722  -0.1795  0.5251  1.0000  -1.8406   0.0000   0.3646
   6.000   1.4588   0.01381   0.00750  -0.1783  0.5143  1.0000  -1.8867   0.0000   0.3616
   6.250   1.4787   0.01413   0.00781  -0.1769  0.5029  1.0000  -1.9333   0.0000   0.3586
   6.500   1.4979   0.01448   0.00814  -0.1755  0.4916  1.0000  -1.9811   0.0000   0.3557
   6.750   1.5158   0.01484   0.00847  -0.1738  0.4808  1.0000  -2.0297   0.0000   0.3528
   7.000   1.5328   0.01522   0.00885  -0.1719  0.4696  1.0000  -2.0796   0.0000   0.3499
   7.250   1.5493   0.01562   0.00925  -0.1700  0.4585  1.0000  -2.1308   0.0000   0.3470
   7.500   1.5654   0.01607   0.00968  -0.1680  0.4477  1.0000  -2.1836   0.0000   0.3442
   7.750   1.5809   0.01654   0.01014  -0.1660  0.4370  1.0000  -2.2382   0.0000   0.3415
   8.000   1.5959   0.01703   0.01064  -0.1640  0.4259  1.0000  -2.2952   0.0000   0.3388
   8.250   1.6103   0.01757   0.01118  -0.1619  0.4152  1.0000  -2.3536   0.0000   0.3361
   8.500   1.6242   0.01815   0.01175  -0.1598  0.4047  1.0000  -2.4135   0.0000   0.3335
   8.750   1.6377   0.01876   0.01237  -0.1576  0.3939  1.0000  -2.4757   0.0000   0.3310
   9.000   1.6506   0.01941   0.01305  -0.1555  0.3831  1.0000  -2.5416   0.0000   0.3284
   9.250   1.6628   0.02013   0.01377  -0.1533  0.3726  1.0000  -2.6094   0.0000   0.3260
   9.500   1.6745   0.02090   0.01454  -0.1511  0.3623  1.0000  -2.6788   0.0000   0.3236
   9.750   1.6860   0.02170   0.01538  -0.1490  0.3516  1.0000  -2.7509   0.0000   0.3212
  10.000   1.6967   0.02258   0.01628  -0.1468  0.3409  1.0000  -2.8261   0.0000   0.3189
  10.250   1.7066   0.02354   0.01725  -0.1446  0.3305  1.0000  -2.9048   0.0000   0.3166
  10.500   1.7162   0.02456   0.01829  -0.1424  0.3201  1.0000  -2.9858   0.0000   0.3144
  10.750   1.7254   0.02563   0.01940  -0.1403  0.3093  1.0000  -3.0692   0.0000   0.3123
  11.000   1.7335   0.02682   0.02060  -0.1382  0.2988  1.0000  -3.1574   0.0000   0.3101
  11.250   1.7408   0.02811   0.02190  -0.1361  0.2884  1.0000  -3.2536   0.0000   0.3081
  11.500   1.7483   0.02942   0.02326  -0.1341  0.2775  1.0000  -3.3540   0.0000   0.3061
  11.750   1.7545   0.03088   0.02474  -0.1321  0.2668  1.0000  -3.4546   0.0000   0.3041
  12.250   1.7652   0.03408   0.02800  -0.1282  0.2457  1.0000  -3.7834   0.0000   0.3004
  12.500   1.7694   0.03586   0.02981  -0.1264  0.2352  1.0000  -3.9579   0.0000   0.2987
  13.000   1.7760   0.03977   0.03378  -0.1229  0.2144  1.0000  -4.3047   0.0000   0.2953
  13.250   1.7782   0.04193   0.03597  -0.1213  0.2042  1.0000  -4.4753   0.0000   0.2938
  13.500   1.7790   0.04429   0.03834  -0.1197  0.1946  1.0000  -4.6404   0.0000   0.2923
  13.750   1.7807   0.04665   0.04075  -0.1183  0.1848  1.0000  -4.8122   0.0000   0.2909
  14.000   1.7813   0.04919   0.04333  -0.1170  0.1752  1.0000  -4.9790   0.0000   0.2895
  14.250   1.7806   0.05194   0.04611  -0.1158  0.1662  1.0000  -5.1399   0.0000   0.2883
  14.500   1.7789   0.05488   0.04907  -0.1147  0.1577  1.0000  -5.2959   0.0000   0.2871
  14.750   1.7779   0.05783   0.05208  -0.1137  0.1491  1.0000  -5.4567   0.0000   0.2860
  15.000   1.7762   0.06094   0.05524  -0.1129  0.1408  1.0000  -5.6147   0.0000   0.2850


