xflr5 v6.10.04

 Calculated polar for: MH 114  13.02%

 1 1 Reynolds number fixed          Mach number fixed         

 xtrf =   1.000 (top)        1.000 (bottom)
 Mach =   0.030     Re =     0.350 e 6     Ncrit =   9.000

  alpha     CL        CD       CDp       Cm    Top Xtr Bot Xtr   Cpmin    Chinge    XCp    
 ------- -------- --------- --------- -------- ------- ------- -------- --------- ---------
 -15.000  -0.2877   0.17397   0.17110  -0.0393  1.0000  0.0155  -1.4786   0.0000   0.0797
 -14.750  -0.2885   0.17252   0.16969  -0.0380  1.0000  0.0157  -1.4645   0.0000   0.0854
 -14.500  -0.2877   0.17081   0.16801  -0.0373  0.9998  0.0159  -1.4572   0.0000   0.0881
 -14.250  -0.2711   0.16707   0.16427  -0.0413  0.9984  0.0162  -1.4450   0.0000   0.0642
 -14.000  -0.2548   0.16329   0.16048  -0.0452  0.9971  0.0166  -1.4470   0.0000   0.0373
 -12.000  -0.1321   0.13272   0.12989  -0.0749  0.9831  0.0192  -1.4651   0.0000  -0.3785
 -11.750  -0.1160   0.12925   0.12641  -0.0781  0.9813  0.0196  -1.4259   0.0000  -0.4922
 -11.500  -0.1017   0.12564   0.12280  -0.0813  0.9784  0.0202  -1.4272   0.0000  -0.6276
 -11.250  -0.0873   0.12142   0.11858  -0.0857  0.9768  0.0209  -1.5042   0.0000  -0.8220
 -11.000  -0.0748   0.11757   0.11474  -0.0889  0.9733  0.0212  -1.5393   0.0000  -1.0429
 -10.750  -0.0575   0.11426   0.11142  -0.0919  0.9714  0.0217  -1.4756   0.0000  -1.4805
 -10.500  -0.0422   0.11065   0.10781  -0.0954  0.9689  0.0225  -1.4754   0.0000  -2.1853
 -10.250  -0.0335   0.10589   0.10305  -0.1010  0.9653  0.0232  -1.6676   0.0000  -2.9834
 -10.000  -0.0125   0.10276   0.09992  -0.1032  0.9640  0.0236  -1.5407   0.0000  -8.5773
  -9.750   0.0020   0.09954   0.09670  -0.1059  0.9598  0.0242  -1.5104   0.0000  55.7647
  -9.500   0.0185   0.09552   0.09267  -0.1104  0.9578  0.0252  -1.5472   0.0000   6.6135
  -9.250   0.0298   0.09106   0.08823  -0.1154  0.9534  0.0257  -1.6585   0.0000   4.3594
  -9.000   0.0513   0.08794   0.08510  -0.1185  0.9513  0.0262  -1.5624   0.0000   2.6902
  -8.750   0.0684   0.08439   0.08154  -0.1224  0.9471  0.0272  -1.5564   0.0000   2.1363
  -8.500   0.0828   0.07900   0.07614  -0.1299  0.9429  0.0282  -1.7202   0.0000   1.8987
  -8.250   0.1021   0.07651   0.07364  -0.1318  0.9374  0.0288  -1.6090   0.0000   1.6042
  -8.000   0.1193   0.07309   0.07020  -0.1358  0.9312  0.0300  -1.6008   0.0000   1.4412
  -7.750   0.1284   0.06800   0.06509  -0.1421  0.9220  0.0311  -1.7637   0.0000   1.4040
  -6.000   0.1958   0.02277   0.01794  -0.1884  0.8561  0.0207  -3.4721   0.0000   1.2376
  -5.750   0.2237   0.02003   0.01467  -0.1900  0.8510  0.0206  -3.4956   0.0000   1.1206
  -5.500   0.2521   0.01797   0.01210  -0.1909  0.8456  0.0207  -3.4857   0.0000   1.0254
  -5.250   0.2801   0.01649   0.01025  -0.1912  0.8401  0.0209  -3.4302   0.0000   0.9484
  -5.000   0.3098   0.01549   0.00915  -0.1918  0.8358  0.0216  -3.2658   0.0000   0.8826
  -4.750   0.3365   0.01471   0.00824  -0.1916  0.8298  0.0227  -3.1269   0.0000   0.8312
  -4.500   0.3651   0.01408   0.00753  -0.1918  0.8247  0.0245  -2.9475   0.0000   0.7859
  -4.250   0.3942   0.01349   0.00687  -0.1921  0.8196  0.0269  -2.7711   0.0000   0.7465
  -4.000   0.4219   0.01296   0.00631  -0.1922  0.8139  0.0299  -2.6009   0.0000   0.7134
  -3.750   0.4518   0.01248   0.00580  -0.1927  0.8090  0.0349  -2.4121   0.0000   0.6833
  -3.500   0.4804   0.01207   0.00538  -0.1929  0.8033  0.0424  -2.2245   0.0000   0.6576
  -3.250   0.5093   0.01168   0.00500  -0.1932  0.7977  0.0554  -2.0334   0.0000   0.6346
  -3.000   0.5400   0.01130   0.00465  -0.1939  0.7929  0.0783  -1.8286   0.0000   0.6135
  -2.750   0.5680   0.01098   0.00445  -0.1941  0.7867  0.1150  -1.6277   0.0000   0.5954
  -2.500   0.5967   0.01070   0.00431  -0.1944  0.7810  0.1670  -1.4289   0.0000   0.5789
  -2.250   0.6268   0.01046   0.00418  -0.1950  0.7760  0.2260  -1.2374   0.0000   0.5636
  -2.000   0.6545   0.01029   0.00414  -0.1951  0.7696  0.2831  -1.0589   0.0000   0.5501
  -1.750   0.6827   0.01015   0.00411  -0.1953  0.7635  0.3397  -0.9184   0.0000   0.5375
  -1.500   0.7119   0.01003   0.00407  -0.1956  0.7580  0.3976  -0.9412   0.0000   0.5257
  -1.250   0.7399   0.00993   0.00407  -0.1956  0.7517  0.4544  -0.9639   0.0000   0.5149
  -1.000   0.7674   0.00987   0.00410  -0.1956  0.7452  0.5069  -0.9868   0.0000   0.5049
  -0.750   0.7952   0.00982   0.00412  -0.1955  0.7390  0.5557  -1.0105   0.0000   0.4955
  -0.500   0.8234   0.00978   0.00412  -0.1955  0.7331  0.6014  -1.0351   0.0000   0.4866
  -0.250   0.8501   0.00975   0.00416  -0.1951  0.7263  0.6447  -1.0594   0.0000   0.4783
   0.000   0.8764   0.00973   0.00421  -0.1947  0.7193  0.6868  -1.0840   0.0000   0.4706
   0.250   0.9024   0.00971   0.00426  -0.1942  0.7125  0.7287  -1.1090   0.0000   0.4632
   0.500   0.9276   0.00969   0.00430  -0.1935  0.7057  0.7722  -1.1343   0.0000   0.4562
   0.750   0.9515   0.00965   0.00432  -0.1924  0.6989  0.8195  -1.1592   0.0000   0.4495
   1.000   0.9705   0.00958   0.00433  -0.1902  0.6917  0.8776  -1.1816   0.0000   0.4429
   1.250   0.9915   0.00944   0.00423  -0.1885  0.6841  1.0000  -1.2056   0.0000   0.4366
   1.500   1.0194   0.00955   0.00427  -0.1886  0.6762  1.0000  -1.2348   0.0000   0.4311
   1.750   1.0469   0.00966   0.00431  -0.1886  0.6683  1.0000  -1.2644   0.0000   0.4259
   2.000   1.0741   0.00978   0.00436  -0.1885  0.6601  1.0000  -1.2945   0.0000   0.4209
   2.250   1.1009   0.00991   0.00443  -0.1884  0.6518  1.0000  -1.3250   0.0000   0.4162
   2.500   1.1274   0.01005   0.00451  -0.1882  0.6433  1.0000  -1.3562   0.0000   0.4116
   2.750   1.1536   0.01019   0.00460  -0.1879  0.6345  1.0000  -1.3880   0.0000   0.4072
   3.000   1.1795   0.01034   0.00470  -0.1876  0.6255  1.0000  -1.4205   0.0000   0.4030
   3.250   1.2051   0.01051   0.00481  -0.1872  0.6164  1.0000  -1.4538   0.0000   0.3989
   3.500   1.2304   0.01069   0.00493  -0.1868  0.6071  1.0000  -1.4879   0.0000   0.3950
   3.750   1.2551   0.01087   0.00508  -0.1862  0.5973  1.0000  -1.5227   0.0000   0.3912
   4.000   1.2794   0.01106   0.00524  -0.1856  0.5871  1.0000  -1.5586   0.0000   0.3875
   4.250   1.3034   0.01127   0.00541  -0.1850  0.5769  1.0000  -1.5956   0.0000   0.3840
   4.500   1.3271   0.01149   0.00559  -0.1843  0.5666  1.0000  -1.6337   0.0000   0.3805
   4.750   1.3505   0.01174   0.00579  -0.1835  0.5564  1.0000  -1.6732   0.0000   0.3772
   5.000   1.3731   0.01198   0.00601  -0.1826  0.5454  1.0000  -1.7138   0.0000   0.3739
   5.250   1.3952   0.01224   0.00625  -0.1816  0.5344  1.0000  -1.7555   0.0000   0.3707
   5.500   1.4169   0.01252   0.00649  -0.1806  0.5235  1.0000  -1.7984   0.0000   0.3676
   5.750   1.4380   0.01282   0.00676  -0.1794  0.5125  1.0000  -1.8425   0.0000   0.3645
   6.000   1.4584   0.01312   0.00705  -0.1781  0.5012  1.0000  -1.8879   0.0000   0.3615
   6.250   1.4778   0.01345   0.00735  -0.1767  0.4901  1.0000  -1.9341   0.0000   0.3585
   6.500   1.4959   0.01379   0.00766  -0.1750  0.4792  1.0000  -1.9806   0.0000   0.3555
   6.750   1.5135   0.01415   0.00801  -0.1732  0.4680  1.0000  -2.0289   0.0000   0.3526
   7.000   1.5307   0.01454   0.00839  -0.1714  0.4571  1.0000  -2.0790   0.0000   0.3497
   7.500   1.5637   0.01540   0.00922  -0.1677  0.4354  1.0000  -2.1834   0.0000   0.3441
   7.750   1.5795   0.01587   0.00968  -0.1657  0.4244  1.0000  -2.2383   0.0000   0.3414
   8.000   1.5946   0.01638   0.01018  -0.1638  0.4139  1.0000  -2.2955   0.0000   0.3387
   8.250   1.6094   0.01692   0.01072  -0.1618  0.4033  1.0000  -2.3545   0.0000   0.3361
   8.500   1.6239   0.01748   0.01130  -0.1598  0.3924  1.0000  -2.4153   0.0000   0.3335
   8.750   1.6376   0.01811   0.01192  -0.1577  0.3818  1.0000  -2.4780   0.0000   0.3310
   9.000   1.6506   0.01879   0.01259  -0.1556  0.3715  1.0000  -2.5444   0.0000   0.3285
   9.250   1.6637   0.01948   0.01330  -0.1536  0.3609  1.0000  -2.6137   0.0000   0.3261
   9.500   1.6762   0.02023   0.01407  -0.1515  0.3503  1.0000  -2.6847   0.0000   0.3237
   9.750   1.6878   0.02106   0.01491  -0.1494  0.3398  1.0000  -2.7573   0.0000   0.3214
  10.250   1.7097   0.02287   0.01675  -0.1453  0.3188  1.0000  -2.9149   0.0000   0.3168
  10.500   1.7200   0.02387   0.01777  -0.1432  0.3082  1.0000  -2.9978   0.0000   0.3147
  10.750   1.7291   0.02498   0.01889  -0.1411  0.2978  1.0000  -3.0815   0.0000   0.3125
  11.000   1.7380   0.02614   0.02006  -0.1391  0.2872  1.0000  -3.1738   0.0000   0.3104
  11.250   1.7465   0.02736   0.02132  -0.1372  0.2764  1.0000  -3.2744   0.0000   0.3084
  11.500   1.7537   0.02873   0.02269  -0.1351  0.2658  1.0000  -3.3747   0.0000   0.3064
  11.750   1.7605   0.03016   0.02415  -0.1332  0.2553  1.0000  -3.4776   0.0000   0.3045
  12.000   1.7672   0.03166   0.02567  -0.1313  0.2445  1.0000  -3.6558   0.0000   0.3026
  12.250   1.7722   0.03333   0.02735  -0.1294  0.2341  1.0000  -3.8334   0.0000   0.3008
  12.500   1.7770   0.03508   0.02913  -0.1276  0.2236  1.0000  -4.0124   0.0000   0.2991
  12.750   1.7815   0.03692   0.03099  -0.1259  0.2129  1.0000  -4.1923   0.0000   0.2974
  13.000   1.7843   0.03896   0.03305  -0.1242  0.2028  1.0000  -4.3659   0.0000   0.2957
  13.250   1.7873   0.04106   0.03517  -0.1226  0.1928  1.0000  -4.5425   0.0000   0.2942
  13.500   1.7898   0.04327   0.03742  -0.1211  0.1829  1.0000  -4.7185   0.0000   0.2927
  13.750   1.7908   0.04570   0.03986  -0.1197  0.1734  1.0000  -4.8879   0.0000   0.2913
  14.000   1.7909   0.04828   0.04246  -0.1183  0.1643  1.0000  -5.0540   0.0000   0.2899
  14.250   1.7918   0.05087   0.04510  -0.1171  0.1551  1.0000  -5.2261   0.0000   0.2886
  14.500   1.7915   0.05366   0.04792  -0.1160  0.1465  1.0000  -5.3924   0.0000   0.2874
  14.750   1.7903   0.05661   0.05091  -0.1151  0.1383  1.0000  -5.5547   0.0000   0.2863
  15.000   1.7885   0.05972   0.05406  -0.1142  0.1306  1.0000  -5.7137   0.0000   0.2853


