xflr5 v6.10.04

 Calculated polar for: MH 114  13.02%

 1 1 Reynolds number fixed          Mach number fixed         

 xtrf =   1.000 (top)        1.000 (bottom)
 Mach =   0.030     Re =     0.250 e 6     Ncrit =   9.000

  alpha     CL        CD       CDp       Cm    Top Xtr Bot Xtr   Cpmin    Chinge    XCp    
 ------- -------- --------- --------- -------- ------- ------- -------- --------- ---------
 -15.000  -0.2802   0.17429   0.17088  -0.0412  1.0000  0.0204  -1.3973   0.0000   0.0682
 -14.750  -0.2801   0.17249   0.16911  -0.0405  1.0000  0.0207  -1.4183   0.0000   0.0715
 -14.500  -0.2817   0.17081   0.16747  -0.0397  1.0000  0.0209  -1.4604   0.0000   0.0763
 -14.000  -0.2866   0.16782   0.16457  -0.0369  1.0000  0.0212  -1.4830   0.0000   0.0905
 -13.750  -0.2883   0.16646   0.16326  -0.0354  0.9999  0.0214  -1.4610   0.0000   0.0973
 -13.500  -0.2708   0.16275   0.15955  -0.0394  0.9982  0.0218  -1.4328   0.0000   0.0733
 -13.250  -0.2540   0.15898   0.15577  -0.0434  0.9964  0.0224  -1.4255   0.0000   0.0462
 -13.000  -0.2382   0.15503   0.15181  -0.0477  0.9943  0.0230  -1.4547   0.0000   0.0148
 -12.750  -0.2232   0.15098   0.14775  -0.0524  0.9926  0.0233  -1.5036   0.0000  -0.0214
 -12.500  -0.2063   0.14741   0.14418  -0.0553  0.9901  0.0236  -1.4346   0.0000  -0.0570
 -12.250  -0.1896   0.14378   0.14055  -0.0590  0.9882  0.0243  -1.4064   0.0000  -0.1032
 -12.000  -0.1745   0.13999   0.13676  -0.0627  0.9856  0.0251  -1.4103   0.0000  -0.1543
 -11.750  -0.1620   0.13579   0.13256  -0.0678  0.9832  0.0256  -1.5096   0.0000  -0.2163
 -11.500  -0.1437   0.13230   0.12906  -0.0703  0.9813  0.0261  -1.4245   0.0000  -0.2924
 -11.250  -0.1284   0.12876   0.12552  -0.0735  0.9782  0.0269  -1.4094   0.0000  -0.3813
 -11.000  -0.1131   0.12473   0.12148  -0.0781  0.9765  0.0279  -1.4621   0.0000  -0.5066
 -10.750  -0.1018   0.12082   0.11758  -0.0818  0.9724  0.0282  -1.5219   0.0000  -0.6258
 -10.500  -0.0829   0.11730   0.11405  -0.0848  0.9708  0.0288  -1.4537   0.0000  -0.8602
 -10.250  -0.0689   0.11388   0.11063  -0.0877  0.9668  0.0297  -1.4456   0.0000  -1.1271
 -10.000  -0.0556   0.10963   0.10638  -0.0932  0.9644  0.0308  -1.5427   0.0000  -1.5530
  -9.750  -0.0417   0.10605   0.10280  -0.0958  0.9603  0.0312  -1.5327   0.0000  -2.2141
  -9.500  -0.0226   0.10260   0.09935  -0.0991  0.9582  0.0320  -1.4773   0.0000  -4.4446
  -9.250  -0.0086   0.09902   0.09578  -0.1027  0.9542  0.0332  -1.4951   0.0000  -12.5243
  -9.000   0.0042   0.09445   0.09121  -0.1088  0.9512  0.0340  -1.6062   0.0000  28.0136
  -8.750   0.0248   0.09135   0.08810  -0.1110  0.9486  0.0349  -1.5105   0.0000   4.9757
  -8.500   0.0414   0.08770   0.08444  -0.1151  0.9449  0.0364  -1.5168   0.0000   3.1840
  -8.250   0.0594   0.08275   0.07949  -0.1224  0.9429  0.0375  -1.6072   0.0000   2.4142
  -8.000   0.0768   0.08003   0.07677  -0.1241  0.9378  0.0385  -1.5291   0.0000   1.9443
  -7.750   0.0877   0.07543   0.07218  -0.1309  0.9314  0.0406  -1.6590   0.0000   1.8112
  -7.500   0.1088   0.07196   0.06870  -0.1342  0.9282  0.0415  -1.5995   0.0000   1.5362
  -7.250   0.1236   0.06922   0.06596  -0.1364  0.9217  0.0430  -1.5576   0.0000   1.3987
  -5.500   0.2245   0.02419   0.01856  -0.1864  0.8646  0.0281  -3.1524   0.0000   1.1005
  -5.250   0.2583   0.02178   0.01583  -0.1884  0.8613  0.0277  -3.0930   0.0000   0.9966
  -5.000   0.2851   0.01992   0.01353  -0.1887  0.8552  0.0277  -3.0719   0.0000   0.9267
  -4.750   0.3156   0.01870   0.01211  -0.1894  0.8507  0.0291  -2.9399   0.0000   0.8631
  -4.500   0.3462   0.01755   0.01062  -0.1899  0.8458  0.0309  -2.8460   0.0000   0.8097
  -4.250   0.3739   0.01671   0.00977  -0.1900  0.8403  0.0330  -2.6950   0.0000   0.7678
  -3.750   0.4330   0.01528   0.00824  -0.1906  0.8302  0.0416  -2.3794   0.0000   0.6976
  -3.500   0.4638   0.01468   0.00762  -0.1912  0.8254  0.0497  -2.2065   0.0000   0.6687
  -3.250   0.4938   0.01414   0.00711  -0.1918  0.8201  0.0626  -2.0268   0.0000   0.6438
  -3.000   0.5227   0.01367   0.00670  -0.1921  0.8143  0.0847  -1.8462   0.0000   0.6222
  -2.750   0.5558   0.01313   0.00628  -0.1933  0.8100  0.1260  -1.6399   0.0000   0.6017
  -2.500   0.5836   0.01279   0.00611  -0.1935  0.8036  0.1851  -1.4584   0.0000   0.5849
  -2.250   0.6124   0.01251   0.00601  -0.1939  0.7978  0.2516  -1.2738   0.0000   0.5693
  -2.000   0.6443   0.01224   0.00584  -0.1947  0.7931  0.3202  -1.0828   0.0000   0.5544
  -1.750   0.6714   0.01210   0.00584  -0.1946  0.7865  0.3827  -0.9124   0.0000   0.5415
  -1.500   0.6994   0.01198   0.00584  -0.1947  0.7803  0.4451  -0.9305   0.0000   0.5295
  -1.250   0.7289   0.01186   0.00579  -0.1949  0.7748  0.5052  -0.9541   0.0000   0.5180
  -1.000   0.7569   0.01177   0.00579  -0.1948  0.7687  0.5592  -0.9773   0.0000   0.5076
  -0.750   0.7834   0.01173   0.00582  -0.1944  0.7620  0.6082  -1.0001   0.0000   0.4979
  -0.500   0.8103   0.01167   0.00583  -0.1940  0.7557  0.6554  -1.0239   0.0000   0.4887
  -0.250   0.8380   0.01160   0.00580  -0.1937  0.7499  0.7017  -1.0488   0.0000   0.4800
   0.000   0.8629   0.01155   0.00582  -0.1928  0.7431  0.7471  -1.0724   0.0000   0.4720
   0.250   0.8856   0.01150   0.00586  -0.1914  0.7360  0.7941  -1.0953   0.0000   0.4643
   0.500   0.9056   0.01142   0.00585  -0.1894  0.7291  0.8474  -1.1171   0.0000   0.4569
   0.750   0.9215   0.01121   0.00571  -0.1863  0.7224  0.9345  -1.1369   0.0000   0.4496
   1.000   0.9536   0.01121   0.00559  -0.1873  0.7157  1.0000  -1.1673   0.0000   0.4433
   1.250   0.9831   0.01130   0.00557  -0.1877  0.7085  1.0000  -1.1966   0.0000   0.4375
   1.500   1.0110   0.01140   0.00560  -0.1877  0.7007  1.0000  -1.2256   0.0000   0.4319
   1.750   1.0386   0.01151   0.00563  -0.1877  0.6928  1.0000  -1.2551   0.0000   0.4266
   2.000   1.0660   0.01162   0.00567  -0.1877  0.6848  1.0000  -1.2852   0.0000   0.4215
   2.250   1.0931   0.01174   0.00572  -0.1876  0.6767  1.0000  -1.3159   0.0000   0.4167
   2.500   1.1199   0.01186   0.00579  -0.1874  0.6684  1.0000  -1.3472   0.0000   0.4121
   2.750   1.1465   0.01199   0.00586  -0.1872  0.6599  1.0000  -1.3791   0.0000   0.4076
   3.000   1.1729   0.01213   0.00595  -0.1869  0.6512  1.0000  -1.4119   0.0000   0.4034
   3.250   1.1989   0.01228   0.00604  -0.1866  0.6424  1.0000  -1.4454   0.0000   0.3993
   3.500   1.2248   0.01243   0.00615  -0.1862  0.6333  1.0000  -1.4798   0.0000   0.3953
   3.750   1.2504   0.01260   0.00626  -0.1858  0.6241  1.0000  -1.5153   0.0000   0.3915
   4.000   1.2752   0.01278   0.00641  -0.1853  0.6144  1.0000  -1.5515   0.0000   0.3878
   4.250   1.2992   0.01298   0.00659  -0.1846  0.6043  1.0000  -1.5883   0.0000   0.3842
   4.500   1.3232   0.01319   0.00677  -0.1839  0.5940  1.0000  -1.6265   0.0000   0.3808
   4.750   1.3471   0.01341   0.00696  -0.1833  0.5838  1.0000  -1.6664   0.0000   0.3774
   5.000   1.3710   0.01365   0.00715  -0.1826  0.5736  1.0000  -1.7081   0.0000   0.3741
   5.250   1.3935   0.01390   0.00739  -0.1817  0.5627  1.0000  -1.7500   0.0000   0.3709
   5.500   1.4156   0.01417   0.00764  -0.1806  0.5516  1.0000  -1.7931   0.0000   0.3678
   5.750   1.4377   0.01446   0.00790  -0.1797  0.5408  1.0000  -1.8381   0.0000   0.3648
   6.000   1.4591   0.01476   0.00818  -0.1786  0.5298  1.0000  -1.8846   0.0000   0.3618
   6.250   1.4793   0.01508   0.00850  -0.1773  0.5183  1.0000  -1.9314   0.0000   0.3588
   6.500   1.4994   0.01543   0.00882  -0.1760  0.5072  1.0000  -1.9802   0.0000   0.3559
   6.750   1.5189   0.01579   0.00916  -0.1746  0.4961  1.0000  -2.0307   0.0000   0.3531
   7.000   1.5368   0.01617   0.00954  -0.1729  0.4845  1.0000  -2.0817   0.0000   0.3502
   7.250   1.5537   0.01656   0.00992  -0.1710  0.4735  1.0000  -2.1335   0.0000   0.3474
   7.500   1.5701   0.01699   0.01033  -0.1691  0.4628  1.0000  -2.1869   0.0000   0.3446
   7.750   1.5851   0.01744   0.01080  -0.1669  0.4515  1.0000  -2.2410   0.0000   0.3418
   8.000   1.6000   0.01793   0.01129  -0.1648  0.4405  1.0000  -2.2979   0.0000   0.3391
   8.250   1.6147   0.01846   0.01180  -0.1627  0.4299  1.0000  -2.3568   0.0000   0.3364
   8.500   1.6281   0.01902   0.01238  -0.1605  0.4189  1.0000  -2.4162   0.0000   0.3337
   8.750   1.6411   0.01962   0.01300  -0.1582  0.4080  1.0000  -2.4778   0.0000   0.3311
   9.000   1.6536   0.02027   0.01365  -0.1559  0.3974  1.0000  -2.5433   0.0000   0.3286
   9.250   1.6657   0.02097   0.01435  -0.1537  0.3869  1.0000  -2.6107   0.0000   0.3261
   9.500   1.6769   0.02171   0.01514  -0.1513  0.3759  1.0000  -2.6792   0.0000   0.3236
   9.750   1.6876   0.02251   0.01596  -0.1490  0.3653  1.0000  -2.7499   0.0000   0.3212
  10.000   1.6977   0.02339   0.01685  -0.1467  0.3550  1.0000  -2.8239   0.0000   0.3188
  10.250   1.7073   0.02432   0.01781  -0.1444  0.3443  1.0000  -2.9017   0.0000   0.3165
  10.750   1.7244   0.02641   0.01997  -0.1399  0.3230  1.0000  -3.0620   0.0000   0.3121
  11.000   1.7319   0.02759   0.02116  -0.1376  0.3126  1.0000  -3.1475   0.0000   0.3099
  11.250   1.7391   0.02883   0.02245  -0.1354  0.3017  1.0000  -3.2429   0.0000   0.3078
  11.500   1.7453   0.03018   0.02384  -0.1332  0.2910  1.0000  -3.3394   0.0000   0.3058
  11.750   1.7505   0.03166   0.02533  -0.1311  0.2807  1.0000  -3.4364   0.0000   0.3038
  12.000   1.7558   0.03319   0.02692  -0.1290  0.2698  1.0000  -3.5690   0.0000   0.3019
  12.250   1.7600   0.03486   0.02863  -0.1270  0.2591  1.0000  -3.7395   0.0000   0.3000
  12.500   1.7631   0.03667   0.03046  -0.1250  0.2490  1.0000  -3.9072   0.0000   0.2982
  12.750   1.7664   0.03855   0.03239  -0.1232  0.2383  1.0000  -4.0781   0.0000   0.2965
  13.000   1.7688   0.04059   0.03447  -0.1214  0.2279  1.0000  -4.2457   0.0000   0.2948
  13.250   1.7699   0.04280   0.03670  -0.1197  0.2179  1.0000  -4.4090   0.0000   0.2933
  13.500   1.7712   0.04509   0.03904  -0.1182  0.2077  1.0000  -4.5751   0.0000   0.2918
  13.750   1.7718   0.04752   0.04152  -0.1167  0.1977  1.0000  -4.7387   0.0000   0.2904
  14.500   1.7691   0.05577   0.04989  -0.1131  0.1701  1.0000  -5.2114   0.0000   0.2866
  14.750   1.7673   0.05880   0.05297  -0.1121  0.1613  1.0000  -5.3656   0.0000   0.2855
  15.000   1.7646   0.06200   0.05623  -0.1113  0.1529  1.0000  -5.5150   0.0000   0.2846


