xflr5 v6.10.04

 Calculated polar for: NACA 4415

 1 1 Reynolds number fixed          Mach number fixed         

 xtrf =   1.000 (top)        1.000 (bottom)
 Mach =   0.030     Re =     0.300 e 6     Ncrit =   9.000

  alpha     CL        CD       CDp       Cm    Top Xtr Bot Xtr   Cpmin    Chinge    XCp    
 ------- -------- --------- --------- -------- ------- ------- -------- --------- ---------
 -14.250  -0.6759   0.07480   0.07097  -0.0797  1.0000  0.0288  -6.0901   0.0000   0.1068
 -14.000  -0.7057   0.06739   0.06345  -0.0840  1.0000  0.0287  -6.3048   0.0000   0.1070
 -13.750  -0.7352   0.06051   0.05643  -0.0880  1.0000  0.0285  -6.4977   0.0000   0.1076
 -13.500  -0.7639   0.05461   0.05038  -0.0910  1.0000  0.0284  -6.6578   0.0000   0.1093
 -13.250  -0.7920   0.04997   0.04560  -0.0924  1.0000  0.0284  -6.7827   0.0000   0.1130
 -13.000  -0.8204   0.04656   0.04207  -0.0916  1.0000  0.0283  -6.8797   0.0000   0.1190
 -12.750  -0.8499   0.04422   0.03962  -0.0886  1.0000  0.0283  -6.9577   0.0000   0.1274
 -12.500  -0.8811   0.04278   0.03808  -0.0831  1.0000  0.0282  -7.0234   0.0000   0.1382
 -12.250  -0.9111   0.04169   0.03689  -0.0764  1.0000  0.0282  -7.0751   0.0000   0.1495
 -12.000  -0.9082   0.03866   0.03348  -0.0772  0.9961  0.0286  -7.0307   0.0000   0.1487
 -11.750  -0.8933   0.03574   0.03013  -0.0790  0.9913  0.0290  -6.9345   0.0000   0.1455
 -11.500  -0.8667   0.03446   0.02890  -0.0802  0.9875  0.0296  -6.7123   0.0000   0.1416
 -11.250  -0.8432   0.03280   0.02707  -0.0814  0.9833  0.0304  -6.5346   0.0000   0.1378
 -11.000  -0.8203   0.03079   0.02467  -0.0827  0.9792  0.0312  -6.3888   0.0000   0.1337
 -10.750  -0.7938   0.02967   0.02360  -0.0834  0.9750  0.0319  -6.1732   0.0000   0.1295
 -10.500  -0.7682   0.02833   0.02209  -0.0842  0.9708  0.0329  -5.9891   0.0000   0.1251
 -10.250  -0.7396   0.02702   0.02065  -0.0853  0.9674  0.0339  -5.7907   0.0000   0.1194
 -10.000  -0.7137   0.02601   0.01958  -0.0857  0.9627  0.0350  -5.5927   0.0000   0.1147
  -9.750  -0.6820   0.02486   0.01835  -0.0873  0.9601  0.0364  -5.3812   0.0000   0.1069
  -9.500  -0.6565   0.02392   0.01731  -0.0874  0.9549  0.0379  -5.2017   0.0000   0.1019
  -9.250  -0.6229   0.02292   0.01631  -0.0891  0.9526  0.0396  -4.9892   0.0000   0.0919
  -9.000  -0.5979   0.02205   0.01537  -0.0889  0.9470  0.0415  -4.8137   0.0000   0.0862
  -8.750  -0.5633   0.02114   0.01441  -0.0907  0.9449  0.0441  -4.6042   0.0000   0.0738
  -8.500  -0.5380   0.02042   0.01363  -0.0904  0.9393  0.0467  -4.4279   0.0000   0.0666
  -8.250  -0.5029   0.01959   0.01281  -0.0922  0.9372  0.0501  -4.2181   0.0000   0.0511
  -8.000  -0.4771   0.01895   0.01216  -0.0920  0.9316  0.0537  -4.0474   0.0000   0.0416
  -7.750  -0.4410   0.01824   0.01145  -0.0938  0.9296  0.0585  -3.8436   0.0000   0.0212
  -7.500  -0.4126   0.01767   0.01084  -0.0940  0.9246  0.0640  -3.6687   0.0000   0.0059
  -7.250  -0.3769   0.01704   0.01023  -0.0956  0.9221  0.0706  -3.4676   0.0000  -0.0208
  -7.000  -0.3371   0.01643   0.00963  -0.0981  0.9207  0.0792  -3.2628   0.0000  -0.0590
  -6.750  -0.3088   0.01603   0.00919  -0.0981  0.9149  0.0877  -3.0973   0.0000  -0.0863
  -6.500  -0.2701   0.01555   0.00871  -0.1003  0.9127  0.0974  -2.9003   0.0000  -0.1415
  -6.250  -0.2407   0.01518   0.00833  -0.1006  0.9071  0.1059  -2.7337   0.0000  -0.1891
  -6.000  -0.2035   0.01476   0.00791  -0.1024  0.9039  0.1150  -2.5488   0.0000  -0.2769
  -5.750  -0.1745   0.01444   0.00757  -0.1025  0.8978  0.1230  -2.3948   0.0000  -0.3637
  -5.500  -0.1368   0.01405   0.00713  -0.1044  0.8943  0.1321  -2.2216   0.0000  -0.5445
  -5.250  -0.1093   0.01376   0.00682  -0.1041  0.8870  0.1398  -2.0779   0.0000  -0.7398
  -5.000  -0.0801   0.01345   0.00651  -0.1043  0.8802  0.1479  -1.9344   0.0000  -1.0991
  -4.750  -0.0486   0.01312   0.00618  -0.1049  0.8740  0.1567  -1.7919   0.0000  -1.9796
  -4.500  -0.0175   0.01281   0.00588  -0.1054  0.8673  0.1664  -1.6531   0.0000  -5.9485
  -4.250   0.0095   0.01256   0.00564  -0.1050  0.8590  0.1765  -1.5272   0.0000  11.5992
  -4.000   0.0367   0.01232   0.00539  -0.1047  0.8505  0.1870  -1.4080   0.0000   3.1780
  -3.750   0.0640   0.01209   0.00515  -0.1044  0.8418  0.1983  -1.2917   0.0000   1.9231
  -3.500   0.0908   0.01186   0.00493  -0.1040  0.8329  0.2102  -1.1893   0.0000   1.4220
  -3.250   0.1173   0.01166   0.00474  -0.1036  0.8236  0.2231  -1.1023   0.0000   1.1513
  -3.000   0.1437   0.01148   0.00456  -0.1031  0.8141  0.2378  -1.0198   0.0000   0.9807
  -2.750   0.1696   0.01131   0.00441  -0.1025  0.8044  0.2534  -0.9413   0.0000   0.8644
  -2.500   0.1953   0.01115   0.00426  -0.1018  0.7944  0.2706  -0.8665   0.0000   0.7793
  -2.250   0.2207   0.01101   0.00413  -0.1011  0.7844  0.2896  -0.8007   0.0000   0.7142
  -2.000   0.2459   0.01086   0.00401  -0.1004  0.7742  0.3106  -0.7486   0.0000   0.6628
  -1.750   0.2696   0.01073   0.00391  -0.0994  0.7634  0.3338  -0.7026   0.0000   0.6218
  -1.500   0.2927   0.01058   0.00382  -0.0983  0.7524  0.3602  -0.7207   0.0000   0.5879
  -1.250   0.3154   0.01042   0.00375  -0.0971  0.7415  0.3932  -0.7389   0.0000   0.5590
  -1.000   0.3373   0.01023   0.00369  -0.0957  0.7306  0.4393  -0.7572   0.0000   0.5343
  -0.750   0.3574   0.00998   0.00366  -0.0940  0.7200  0.5095  -0.7746   0.0000   0.5128
  -0.500   0.3757   0.00972   0.00368  -0.0918  0.7095  0.6027  -0.7916   0.0000   0.4935
  -0.250   0.3945   0.00950   0.00371  -0.0895  0.6992  0.6919  -0.8092   0.0000   0.4756
   0.000   0.4159   0.00932   0.00376  -0.0877  0.6888  0.7755  -0.8285   0.0000   0.4590
   0.250   0.4581   0.00924   0.00390  -0.0902  0.6777  0.8681  -0.8601   0.0000   0.4446
   0.500   0.5313   0.00942   0.00405  -0.0995  0.6657  0.9242  -0.9100   0.0000   0.4346
   0.750   0.5836   0.00962   0.00416  -0.1044  0.6544  0.9493  -0.9496   0.0000   0.4258
   1.000   0.6262   0.00984   0.00428  -0.1073  0.6435  0.9681  -0.9847   0.0000   0.4178
   1.250   0.6709   0.01005   0.00438  -0.1107  0.6327  0.9826  -1.0228   0.0000   0.4112
   1.500   0.7197   0.01021   0.00445  -0.1152  0.6212  0.9933  -1.0653   0.0000   0.4059
   1.750   0.7644   0.01033   0.00448  -0.1189  0.6101  1.0000  -1.1064   0.0000   0.4010
   2.000   0.7824   0.01042   0.00451  -0.1169  0.6005  1.0000  -1.1306   0.0000   0.3947
   2.250   0.8009   0.01053   0.00455  -0.1151  0.5912  1.0000  -1.1556   0.0000   0.3886
   2.500   0.8197   0.01066   0.00460  -0.1133  0.5820  1.0000  -1.1819   0.0000   0.3827
   2.750   0.8388   0.01079   0.00468  -0.1115  0.5730  1.0000  -1.2176   0.0000   0.3771
   3.000   0.8582   0.01094   0.00477  -0.1098  0.5642  1.0000  -1.2542   0.0000   0.3718
   3.250   0.8778   0.01109   0.00486  -0.1081  0.5557  1.0000  -1.2923   0.0000   0.3667
   3.500   0.8977   0.01125   0.00497  -0.1064  0.5473  1.0000  -1.3308   0.0000   0.3618
   3.750   0.9177   0.01142   0.00509  -0.1048  0.5391  1.0000  -1.3708   0.0000   0.3571
   4.000   0.9369   0.01159   0.00522  -0.1030  0.5304  1.0000  -1.4104   0.0000   0.3526
   4.250   0.9554   0.01176   0.00534  -0.1011  0.5210  1.0000  -1.4501   0.0000   0.3481
   4.500   0.9736   0.01193   0.00547  -0.0990  0.5115  1.0000  -1.4907   0.0000   0.3437
   4.750   0.9918   0.01210   0.00561  -0.0970  0.5022  1.0000  -1.5315   0.0000   0.3395
   5.000   1.0102   0.01228   0.00577  -0.0951  0.4935  1.0000  -1.5736   0.0000   0.3355
   5.250   1.0286   0.01246   0.00594  -0.0932  0.4849  1.0000  -1.6163   0.0000   0.3316
   5.500   1.0469   0.01265   0.00612  -0.0912  0.4765  1.0000  -1.6598   0.0000   0.3278
   5.750   1.0650   0.01284   0.00630  -0.0892  0.4681  1.0000  -1.7041   0.0000   0.3241
   6.000   1.0828   0.01304   0.00649  -0.0872  0.4598  1.0000  -1.7491   0.0000   0.3206
   6.250   1.1003   0.01325   0.00669  -0.0851  0.4514  1.0000  -1.7946   0.0000   0.3171
   6.500   1.1173   0.01347   0.00690  -0.0830  0.4429  1.0000  -1.8410   0.0000   0.3136
   6.750   1.1337   0.01370   0.00711  -0.0807  0.4343  1.0000  -1.8873   0.0000   0.3102
   7.000   1.1482   0.01392   0.00733  -0.0781  0.4257  1.0000  -1.9331   0.0000   0.3066
   7.250   1.1619   0.01415   0.00755  -0.0753  0.4169  1.0000  -1.9783   0.0000   0.3031
   7.500   1.1754   0.01439   0.00778  -0.0725  0.4078  1.0000  -2.0369   0.0000   0.2996
   7.750   1.1891   0.01464   0.00804  -0.0698  0.3984  1.0000  -2.1120   0.0000   0.2962
   8.000   1.2027   0.01492   0.00833  -0.0671  0.3886  1.0000  -2.1890   0.0000   0.2930
   8.250   1.2163   0.01523   0.00863  -0.0645  0.3784  1.0000  -2.2674   0.0000   0.2899
   8.500   1.2296   0.01557   0.00897  -0.0619  0.3679  1.0000  -2.3474   0.0000   0.2868
   8.750   1.2425   0.01595   0.00933  -0.0594  0.3572  1.0000  -2.4275   0.0000   0.2838
   9.000   1.2551   0.01636   0.00974  -0.0568  0.3459  1.0000  -2.5084   0.0000   0.2810
   9.250   1.2674   0.01681   0.01019  -0.0543  0.3339  1.0000  -2.5908   0.0000   0.2781
   9.500   1.2784   0.01734   0.01069  -0.0517  0.3216  1.0000  -2.6710   0.0000   0.2753
   9.750   1.2888   0.01791   0.01124  -0.0490  0.3073  1.0000  -2.7509   0.0000   0.2725
  10.000   1.2979   0.01858   0.01187  -0.0463  0.2924  1.0000  -2.8291   0.0000   0.2697
  10.250   1.3060   0.01935   0.01258  -0.0436  0.2778  1.0000  -2.9069   0.0000   0.2670
  10.500   1.3149   0.02014   0.01335  -0.0412  0.2635  1.0000  -2.9868   0.0000   0.2645
  10.750   1.3232   0.02102   0.01420  -0.0387  0.2505  1.0000  -3.0655   0.0000   0.2620
  11.000   1.3309   0.02197   0.01512  -0.0364  0.2380  1.0000  -3.1433   0.0000   0.2596
  11.250   1.3384   0.02300   0.01612  -0.0341  0.2265  1.0000  -3.2219   0.0000   0.2573
  11.500   1.3461   0.02407   0.01717  -0.0320  0.2155  1.0000  -3.3021   0.0000   0.2551
  11.750   1.3530   0.02522   0.01831  -0.0299  0.2057  1.0000  -3.3809   0.0000   0.2530
  12.000   1.3597   0.02645   0.01952  -0.0280  0.1967  1.0000  -3.4592   0.0000   0.2510
  12.250   1.3663   0.02772   0.02080  -0.0261  0.1885  1.0000  -3.5375   0.0000   0.2491
  12.500   1.3729   0.02905   0.02214  -0.0244  0.1808  1.0000  -3.6160   0.0000   0.2472
  12.750   1.3794   0.03044   0.02354  -0.0228  0.1735  1.0000  -3.6965   0.0000   0.2455
  13.000   1.3857   0.03189   0.02502  -0.0213  0.1667  1.0000  -3.7766   0.0000   0.2438
  13.250   1.3914   0.03342   0.02658  -0.0199  0.1603  1.0000  -3.8553   0.0000   0.2423
  13.500   1.3965   0.03507   0.02825  -0.0186  0.1542  1.0000  -3.9323   0.0000   0.2407
  13.750   1.4005   0.03685   0.03005  -0.0173  0.1486  1.0000  -4.0062   0.0000   0.2393
  14.000   1.4041   0.03873   0.03196  -0.0162  0.1429  1.0000  -4.0806   0.0000   0.2379
  14.250   1.4087   0.04060   0.03389  -0.0152  0.1370  1.0000  -4.1578   0.0000   0.2366
  14.500   1.4121   0.04261   0.03595  -0.0144  0.1312  1.0000  -4.2316   0.0000   0.2354
  14.750   1.4145   0.04479   0.03818  -0.0136  0.1257  1.0000  -4.3016   0.0000   0.2343
  15.000   1.4157   0.04715   0.04057  -0.0129  0.1201  1.0000  -4.3676   0.0000   0.2333


