xflr5 v6.10.04

 Calculated polar for: NACA 4415

 1 1 Reynolds number fixed          Mach number fixed         

 xtrf =   1.000 (top)        1.000 (bottom)
 Mach =   0.030     Re =     0.250 e 6     Ncrit =   9.000

  alpha     CL        CD       CDp       Cm    Top Xtr Bot Xtr   Cpmin    Chinge    XCp    
 ------- -------- --------- --------- -------- ------- ------- -------- --------- ---------
 -15.000  -0.3597   0.15994   0.15624  -0.0385  1.0000  0.0469  -1.7334   0.0000   0.1108
 -14.750  -0.3516   0.15778   0.15410  -0.0384  1.0000  0.0476  -1.6798   0.0000   0.1088
 -14.500  -0.3482   0.15497   0.15130  -0.0392  1.0000  0.0491  -1.6913   0.0000   0.1060
 -13.500  -0.6393   0.07387   0.06997  -0.0783  1.0000  0.0334  -5.5149   0.0000   0.1036
 -13.250  -0.6696   0.06663   0.06265  -0.0822  1.0000  0.0332  -5.7197   0.0000   0.1046
 -13.000  -0.7021   0.05980   0.05571  -0.0859  1.0000  0.0329  -5.9177   0.0000   0.1063
 -12.750  -0.7360   0.05415   0.04992  -0.0883  1.0000  0.0327  -6.0910   0.0000   0.1100
 -12.500  -0.7704   0.05012   0.04576  -0.0882  1.0000  0.0325  -6.2280   0.0000   0.1167
 -12.250  -0.8052   0.04753   0.04306  -0.0852  1.0000  0.0324  -6.3355   0.0000   0.1265
 -12.000  -0.8417   0.04603   0.04148  -0.0792  1.0000  0.0323  -6.4266   0.0000   0.1392
 -11.750  -0.8720   0.04451   0.03983  -0.0731  1.0000  0.0322  -6.4900   0.0000   0.1502
 -11.500  -0.8793   0.04176   0.03677  -0.0718  0.9976  0.0325  -6.4828   0.0000   0.1528
 -11.250  -0.8695   0.03798   0.03241  -0.0738  0.9918  0.0332  -6.4511   0.0000   0.1498
 -11.000  -0.8467   0.03598   0.03026  -0.0752  0.9872  0.0338  -6.2888   0.0000   0.1461
 -10.750  -0.8215   0.03438   0.02855  -0.0764  0.9829  0.0346  -6.1061   0.0000   0.1420
 -10.500  -0.8005   0.03216   0.02590  -0.0773  0.9779  0.0356  -5.9846   0.0000   0.1386
 -10.250  -0.7722   0.03077   0.02446  -0.0786  0.9741  0.0365  -5.7856   0.0000   0.1335
 -10.000  -0.7471   0.02942   0.02293  -0.0792  0.9691  0.0377  -5.6100   0.0000   0.1294
  -9.750  -0.7174   0.02810   0.02149  -0.0805  0.9656  0.0390  -5.4150   0.0000   0.1232
  -9.500  -0.6899   0.02691   0.02015  -0.0811  0.9609  0.0405  -5.2323   0.0000   0.1178
  -9.250  -0.6622   0.02588   0.01910  -0.0817  0.9561  0.0421  -5.0467   0.0000   0.1121
  -9.000  -0.6297   0.02478   0.01788  -0.0832  0.9529  0.0442  -4.8550   0.0000   0.1033
  -8.750  -0.6033   0.02389   0.01689  -0.0833  0.9475  0.0465  -4.6817   0.0000   0.0973
  -8.500  -0.5683   0.02297   0.01596  -0.0852  0.9450  0.0493  -4.4736   0.0000   0.0854
  -8.250  -0.5424   0.02222   0.01520  -0.0851  0.9391  0.0522  -4.2973   0.0000   0.0784
  -8.000  -0.5059   0.02137   0.01427  -0.0870  0.9369  0.0564  -4.0969   0.0000   0.0630
  -7.750  -0.4802   0.02072   0.01360  -0.0868  0.9308  0.0604  -3.9315   0.0000   0.0542
  -7.500  -0.4426   0.01999   0.01291  -0.0889  0.9287  0.0658  -3.7260   0.0000   0.0336
  -7.250  -0.4164   0.01945   0.01233  -0.0887  0.9225  0.0715  -3.5602   0.0000   0.0214
  -7.000  -0.3779   0.01879   0.01168  -0.0908  0.9206  0.0793  -3.3563   0.0000  -0.0068
  -6.750  -0.3506   0.01833   0.01115  -0.0907  0.9145  0.0874  -3.1969   0.0000  -0.0254
  -6.500  -0.3113   0.01776   0.01061  -0.0930  0.9126  0.0972  -2.9990   0.0000  -0.0664
  -6.250  -0.2818   0.01734   0.01018  -0.0933  0.9071  0.1061  -2.8331   0.0000  -0.0995
  -6.000  -0.2422   0.01687   0.00969  -0.0956  0.9046  0.1163  -2.6397   0.0000  -0.1649
  -5.750  -0.2081   0.01645   0.00923  -0.0967  0.9003  0.1255  -2.4711   0.0000  -0.2371
  -5.500  -0.1733   0.01600   0.00880  -0.0980  0.8960  0.1343  -2.3040   0.0000  -0.3406
  -5.250  -0.1409   0.01560   0.00840  -0.0988  0.8908  0.1429  -2.1466   0.0000  -0.4805
  -5.000  -0.1050   0.01517   0.00796  -0.1002  0.8864  0.1524  -1.9844   0.0000  -0.7408
  -4.750  -0.0755   0.01483   0.00761  -0.1004  0.8798  0.1616  -1.8462   0.0000  -1.1276
  -4.500  -0.0367   0.01441   0.00715  -0.1024  0.8760  0.1732  -1.6899   0.0000  -2.6286
  -4.250  -0.0093   0.01408   0.00685  -0.1021  0.8681  0.1832  -1.5625   0.0000  -11.0304
  -4.000   0.0190   0.01375   0.00655  -0.1020  0.8603  0.1938  -1.4406   0.0000   5.7772
  -3.750   0.0480   0.01345   0.00625  -0.1020  0.8524  0.2055  -1.3204   0.0000   2.4328
  -3.500   0.0773   0.01316   0.00596  -0.1021  0.8445  0.2186  -1.2086   0.0000   1.6027
  -3.250   0.1060   0.01287   0.00571  -0.1021  0.8362  0.2321  -1.1173   0.0000   1.2339
  -3.000   0.1343   0.01263   0.00547  -0.1019  0.8274  0.2477  -1.0316   0.0000   1.0240
  -2.750   0.1615   0.01241   0.00526  -0.1016  0.8182  0.2645  -0.9510   0.0000   0.8900
  -2.500   0.1879   0.01219   0.00508  -0.1011  0.8086  0.2825  -0.8750   0.0000   0.7963
  -2.250   0.2137   0.01200   0.00492  -0.1005  0.7986  0.3027  -0.8063   0.0000   0.7264
  -2.000   0.2391   0.01181   0.00477  -0.0998  0.7885  0.3253  -0.7539   0.0000   0.6719
  -1.750   0.2639   0.01161   0.00463  -0.0990  0.7781  0.3505  -0.7042   0.0000   0.6284
  -1.500   0.2882   0.01141   0.00451  -0.0981  0.7678  0.3810  -0.7167   0.0000   0.5926
  -1.250   0.3116   0.01119   0.00440  -0.0970  0.7574  0.4209  -0.7353   0.0000   0.5626
  -1.000   0.3334   0.01092   0.00433  -0.0956  0.7470  0.4802  -0.7535   0.0000   0.5373
  -0.750   0.3528   0.01062   0.00432  -0.0936  0.7367  0.5696  -0.7706   0.0000   0.5152
  -0.500   0.3710   0.01034   0.00435  -0.0912  0.7261  0.6674  -0.7876   0.0000   0.4951
  -0.250   0.3921   0.01012   0.00439  -0.0893  0.7155  0.7577  -0.8064   0.0000   0.4764
   0.000   0.4327   0.01000   0.00450  -0.0913  0.7047  0.8545  -0.8365   0.0000   0.4592
   0.250   0.5059   0.01015   0.00463  -0.1004  0.6933  0.9174  -0.8857   0.0000   0.4462
   0.500   0.5614   0.01033   0.00471  -0.1058  0.6820  0.9450  -0.9262   0.0000   0.4358
   0.750   0.6058   0.01055   0.00481  -0.1089  0.6712  0.9659  -0.9615   0.0000   0.4268
   1.000   0.6532   0.01074   0.00489  -0.1129  0.6597  0.9816  -0.9999   0.0000   0.4194
   1.250   0.7044   0.01088   0.00493  -0.1178  0.6480  0.9938  -1.0428   0.0000   0.4135
   1.500   0.7455   0.01097   0.00492  -0.1208  0.6369  1.0000  -1.0807   0.0000   0.4079
   1.750   0.7637   0.01106   0.00493  -0.1189  0.6269  1.0000  -1.1042   0.0000   0.4013
   2.000   0.7824   0.01117   0.00496  -0.1171  0.6172  1.0000  -1.1289   0.0000   0.3949
   2.250   0.8014   0.01129   0.00501  -0.1154  0.6077  1.0000  -1.1542   0.0000   0.3889
   2.500   0.8208   0.01143   0.00508  -0.1137  0.5983  1.0000  -1.1813   0.0000   0.3831
   2.750   0.8403   0.01158   0.00517  -0.1120  0.5891  1.0000  -1.2172   0.0000   0.3775
   3.000   0.8600   0.01174   0.00527  -0.1103  0.5800  1.0000  -1.2539   0.0000   0.3722
   3.250   0.8798   0.01190   0.00538  -0.1086  0.5710  1.0000  -1.2921   0.0000   0.3671
   3.500   0.8998   0.01208   0.00550  -0.1070  0.5623  1.0000  -1.3307   0.0000   0.3622
   3.750   0.9198   0.01225   0.00563  -0.1054  0.5536  1.0000  -1.3706   0.0000   0.3576
   4.000   0.9400   0.01244   0.00577  -0.1038  0.5451  1.0000  -1.4110   0.0000   0.3531
   4.250   0.9597   0.01263   0.00592  -0.1021  0.5363  1.0000  -1.4517   0.0000   0.3488
   4.500   0.9784   0.01281   0.00606  -0.1002  0.5267  1.0000  -1.4927   0.0000   0.3445
   4.750   0.9967   0.01299   0.00621  -0.0982  0.5170  1.0000  -1.5337   0.0000   0.3403
   5.000   1.0152   0.01318   0.00636  -0.0963  0.5077  1.0000  -1.5759   0.0000   0.3363
   5.250   1.0341   0.01338   0.00654  -0.0945  0.4990  1.0000  -1.6192   0.0000   0.3324
   5.500   1.0530   0.01358   0.00672  -0.0927  0.4904  1.0000  -1.6634   0.0000   0.3287
   5.750   1.0718   0.01379   0.00691  -0.0908  0.4819  1.0000  -1.7084   0.0000   0.3251
   6.000   1.0904   0.01401   0.00710  -0.0890  0.4735  1.0000  -1.7543   0.0000   0.3216
   6.250   1.1083   0.01423   0.00731  -0.0870  0.4649  1.0000  -1.8003   0.0000   0.3182
   6.500   1.1253   0.01445   0.00753  -0.0848  0.4561  1.0000  -1.8468   0.0000   0.3147
   6.750   1.1419   0.01468   0.00776  -0.0826  0.4472  1.0000  -1.8934   0.0000   0.3114
   7.000   1.1579   0.01491   0.00799  -0.0803  0.4382  1.0000  -1.9409   0.0000   0.3080
   7.250   1.1733   0.01516   0.00824  -0.0779  0.4291  1.0000  -1.9885   0.0000   0.3047
   7.500   1.1872   0.01541   0.00849  -0.0751  0.4199  1.0000  -2.0538   0.0000   0.3012
   7.750   1.1997   0.01567   0.00874  -0.0721  0.4106  1.0000  -2.1271   0.0000   0.2977
   8.000   1.2121   0.01594   0.00901  -0.0692  0.4011  1.0000  -2.2020   0.0000   0.2943
   8.250   1.2241   0.01624   0.00931  -0.0663  0.3911  1.0000  -2.2774   0.0000   0.2910
   8.500   1.2360   0.01655   0.00965  -0.0634  0.3805  1.0000  -2.3548   0.0000   0.2877
   8.750   1.2479   0.01691   0.01001  -0.0605  0.3696  1.0000  -2.4328   0.0000   0.2846
   9.000   1.2594   0.01731   0.01041  -0.0577  0.3585  1.0000  -2.5113   0.0000   0.2816
   9.250   1.2705   0.01776   0.01084  -0.0550  0.3473  1.0000  -2.5913   0.0000   0.2786
   9.500   1.2813   0.01824   0.01134  -0.0522  0.3348  1.0000  -2.6708   0.0000   0.2757
   9.750   1.2908   0.01881   0.01187  -0.0494  0.3222  1.0000  -2.7486   0.0000   0.2728
  10.000   1.2994   0.01943   0.01249  -0.0466  0.3081  1.0000  -2.8252   0.0000   0.2699
  10.250   1.3067   0.02017   0.01318  -0.0437  0.2939  1.0000  -2.9011   0.0000   0.2671
  10.500   1.3137   0.02098   0.01395  -0.0409  0.2794  1.0000  -2.9766   0.0000   0.2643
  10.750   1.3210   0.02185   0.01480  -0.0383  0.2656  1.0000  -3.0529   0.0000   0.2617
  11.000   1.3273   0.02283   0.01574  -0.0357  0.2533  1.0000  -3.1273   0.0000   0.2592
  11.250   1.3346   0.02384   0.01674  -0.0334  0.2409  1.0000  -3.2042   0.0000   0.2569
  11.500   1.3408   0.02496   0.01783  -0.0311  0.2298  1.0000  -3.2805   0.0000   0.2546
  11.750   1.3464   0.02616   0.01901  -0.0289  0.2198  1.0000  -3.3556   0.0000   0.2524
  12.000   1.3531   0.02737   0.02022  -0.0269  0.2100  1.0000  -3.4332   0.0000   0.2503
  12.250   1.3593   0.02866   0.02152  -0.0251  0.2011  1.0000  -3.5098   0.0000   0.2484
  12.500   1.3651   0.03002   0.02289  -0.0233  0.1928  1.0000  -3.5857   0.0000   0.2465
  12.750   1.3707   0.03145   0.02433  -0.0216  0.1852  1.0000  -3.6626   0.0000   0.2447
  13.000   1.3758   0.03296   0.02585  -0.0200  0.1781  1.0000  -3.7388   0.0000   0.2430
  13.250   1.3803   0.03457   0.02747  -0.0185  0.1715  1.0000  -3.8136   0.0000   0.2414
  13.500   1.3848   0.03625   0.02917  -0.0172  0.1650  1.0000  -3.8879   0.0000   0.2398
  13.750   1.3894   0.03797   0.03094  -0.0160  0.1585  1.0000  -3.9627   0.0000   0.2384
  14.000   1.3934   0.03980   0.03282  -0.0148  0.1523  1.0000  -4.0367   0.0000   0.2370
  14.250   1.3966   0.04176   0.03482  -0.0138  0.1464  1.0000  -4.1090   0.0000   0.2357
  14.500   1.3987   0.04387   0.03696  -0.0129  0.1406  1.0000  -4.1779   0.0000   0.2345
  14.750   1.3998   0.04613   0.03924  -0.0120  0.1351  1.0000  -4.2435   0.0000   0.2333
  15.000   1.4011   0.04848   0.04165  -0.0114  0.1291  1.0000  -4.3085   0.0000   0.2323


