xflr5 v6.10.04

 Calculated polar for: NACA 4415

 1 1 Reynolds number fixed          Mach number fixed         

 xtrf =   1.000 (top)        1.000 (bottom)
 Mach =   0.030     Re =     0.350 e 6     Ncrit =   9.000

  alpha     CL        CD       CDp       Cm    Top Xtr Bot Xtr   Cpmin    Chinge    XCp    
 ------- -------- --------- --------- -------- ------- ------- -------- --------- ---------
 -14.750  -0.6361   0.08747   0.08401  -0.0711  1.0000  0.0265  -5.8460   0.0000   0.1110
 -14.500  -0.6921   0.07494   0.07128  -0.0786  1.0000  0.0261  -6.3473   0.0000   0.1108
 -14.250  -0.7549   0.06210   0.05812  -0.0872  1.0000  0.0255  -6.8764   0.0000   0.1107
 -14.000  -0.8091   0.05218   0.04784  -0.0939  1.0000  0.0252  -7.2774   0.0000   0.1118
 -13.750  -0.8336   0.04778   0.04328  -0.0952  1.0000  0.0252  -7.3809   0.0000   0.1147
 -13.500  -0.8540   0.04473   0.04013  -0.0946  1.0000  0.0253  -7.4278   0.0000   0.1191
 -13.250  -0.8765   0.04237   0.03767  -0.0924  1.0000  0.0253  -7.4695   0.0000   0.1254
 -13.000  -0.9021   0.04067   0.03588  -0.0883  1.0000  0.0253  -7.5118   0.0000   0.1338
 -12.750  -0.9315   0.03958   0.03471  -0.0820  1.0000  0.0253  -7.5607   0.0000   0.1445
 -12.500  -0.9300   0.03825   0.03331  -0.0803  0.9980  0.0256  -7.4551   0.0000   0.1466
 -12.250  -0.9118   0.03618   0.03105  -0.0820  0.9940  0.0261  -7.2923   0.0000   0.1433
 -12.000  -0.8945   0.03387   0.02841  -0.0835  0.9895  0.0266  -7.1584   0.0000   0.1401
 -11.750  -0.8718   0.03195   0.02628  -0.0850  0.9859  0.0271  -6.9893   0.0000   0.1362
 -11.500  -0.8468   0.03073   0.02505  -0.0858  0.9818  0.0277  -6.7749   0.0000   0.1325
 -11.250  -0.8212   0.02931   0.02347  -0.0870  0.9783  0.0284  -6.5798   0.0000   0.1281
 -11.000  -0.7962   0.02787   0.02185  -0.0879  0.9743  0.0292  -6.3928   0.0000   0.1238
 -10.750  -0.7702   0.02684   0.02080  -0.0885  0.9703  0.0300  -6.1789   0.0000   0.1193
 -10.500  -0.7414   0.02561   0.01937  -0.0897  0.9673  0.0310  -5.9799   0.0000   0.1133
 -10.250  -0.7163   0.02460   0.01838  -0.0900  0.9627  0.0318  -5.7752   0.0000   0.1088
 -10.000  -0.6849   0.02358   0.01723  -0.0914  0.9602  0.0332  -5.5589   0.0000   0.1010
  -9.750  -0.6599   0.02267   0.01634  -0.0915  0.9553  0.0343  -5.3634   0.0000   0.0959
  -9.500  -0.6273   0.02170   0.01525  -0.0930  0.9530  0.0360  -5.1572   0.0000   0.0863
  -9.250  -0.6019   0.02090   0.01446  -0.0930  0.9479  0.0375  -4.9676   0.0000   0.0801
  -9.000  -0.5691   0.02001   0.01355  -0.0944  0.9456  0.0396  -4.7569   0.0000   0.0685
  -8.750  -0.5428   0.01926   0.01276  -0.0944  0.9408  0.0418  -4.5717   0.0000   0.0604
  -8.500  -0.5099   0.01847   0.01195  -0.0957  0.9383  0.0447  -4.3644   0.0000   0.0464
  -8.250  -0.4737   0.01769   0.01116  -0.0977  0.9369  0.0484  -4.1542   0.0000   0.0276
  -8.000  -0.4483   0.01710   0.01054  -0.0973  0.9313  0.0521  -3.9831   0.0000   0.0166
  -7.750  -0.4114   0.01641   0.00984  -0.0993  0.9296  0.0573  -3.7760   0.0000  -0.0083
  -7.500  -0.3813   0.01588   0.00930  -0.0998  0.9252  0.0630  -3.5912   0.0000  -0.0291
  -7.250  -0.3460   0.01532   0.00875  -0.1014  0.9223  0.0701  -3.3925   0.0000  -0.0611
  -7.000  -0.3079   0.01478   0.00822  -0.1035  0.9204  0.0789  -3.1940   0.0000  -0.1056
  -6.750  -0.2804   0.01444   0.00784  -0.1033  0.9143  0.0873  -3.0291   0.0000  -0.1387
  -6.500  -0.2426   0.01399   0.00741  -0.1054  0.9117  0.0964  -2.8343   0.0000  -0.2064
  -6.250  -0.2151   0.01372   0.00709  -0.1052  0.9051  0.1046  -2.6733   0.0000  -0.2624
  -6.000  -0.1847   0.01339   0.00677  -0.1056  0.8995  0.1124  -2.5092   0.0000  -0.3478
  -5.750  -0.1510   0.01305   0.00642  -0.1067  0.8946  0.1204  -2.3423   0.0000  -0.4870
  -5.500  -0.1236   0.01279   0.00614  -0.1065  0.8873  0.1276  -2.1957   0.0000  -0.6462
  -5.250  -0.0951   0.01252   0.00586  -0.1065  0.8801  0.1352  -2.0493   0.0000  -0.9123
  -5.000  -0.0656   0.01226   0.00558  -0.1067  0.8731  0.1430  -1.9058   0.0000  -1.4337
  -4.750  -0.0354   0.01200   0.00530  -0.1070  0.8662  0.1515  -1.7665   0.0000  -2.8720
  -4.500  -0.0076   0.01178   0.00507  -0.1068  0.8581  0.1605  -1.6357   0.0000  -14.1564
  -4.250   0.0189   0.01159   0.00486  -0.1064  0.8494  0.1705  -1.5112   0.0000   6.0444
  -4.000   0.0454   0.01140   0.00466  -0.1059  0.8405  0.1809  -1.3936   0.0000   2.6480
  -3.750   0.0714   0.01120   0.00446  -0.1054  0.8313  0.1915  -1.2796   0.0000   1.7628
  -3.500   0.0971   0.01101   0.00428  -0.1048  0.8220  0.2027  -1.1810   0.0000   1.3533
  -3.250   0.1229   0.01086   0.00412  -0.1042  0.8124  0.2154  -1.0955   0.0000   1.1152
  -3.000   0.1485   0.01071   0.00396  -0.1035  0.8026  0.2291  -1.0144   0.0000   0.9603
  -2.750   0.1739   0.01058   0.00383  -0.1029  0.7928  0.2443  -0.9366   0.0000   0.8513
  -2.500   0.1980   0.01045   0.00372  -0.1019  0.7822  0.2603  -0.8638   0.0000   0.7722
  -2.250   0.2221   0.01034   0.00363  -0.1010  0.7715  0.2782  -0.8005   0.0000   0.7103
  -2.000   0.2461   0.01023   0.00354  -0.1000  0.7607  0.2977  -0.7495   0.0000   0.6606
  -1.750   0.2699   0.01012   0.00345  -0.0990  0.7499  0.3190  -0.7038   0.0000   0.6199
  -1.500   0.2935   0.01001   0.00337  -0.0980  0.7391  0.3433  -0.7222   0.0000   0.5859
  -1.250   0.3168   0.00988   0.00330  -0.0969  0.7284  0.3722  -0.7408   0.0000   0.5570
  -1.000   0.3395   0.00974   0.00325  -0.0957  0.7178  0.4100  -0.7594   0.0000   0.5323
  -0.750   0.3600   0.00955   0.00322  -0.0941  0.7067  0.4648  -0.7770   0.0000   0.5111
  -0.500   0.3786   0.00931   0.00323  -0.0920  0.6957  0.5456  -0.7942   0.0000   0.4922
  -0.250   0.3963   0.00909   0.00327  -0.0897  0.6850  0.6360  -0.8111   0.0000   0.4749
   0.000   0.4148   0.00891   0.00332  -0.0874  0.6745  0.7167  -0.8288   0.0000   0.4588
   0.250   0.4368   0.00875   0.00338  -0.0857  0.6642  0.7979  -0.8490   0.0000   0.4439
   0.500   0.4883   0.00873   0.00354  -0.0904  0.6533  0.8891  -0.8864   0.0000   0.4322
   0.750   0.5617   0.00895   0.00369  -0.0999  0.6415  0.9332  -0.9375   0.0000   0.4246
   1.000   0.6085   0.00916   0.00383  -0.1037  0.6301  0.9557  -0.9748   0.0000   0.4168
   1.250   0.6489   0.00938   0.00396  -0.1061  0.6193  0.9730  -1.0098   0.0000   0.4097
   1.500   0.6927   0.00959   0.00408  -0.1095  0.6085  0.9857  -1.0487   0.0000   0.4038
   1.750   0.7409   0.00976   0.00415  -0.1138  0.5976  0.9947  -1.0918   0.0000   0.3991
   2.000   0.7826   0.00989   0.00419  -0.1169  0.5872  1.0000  -1.1319   0.0000   0.3945
   2.250   0.8006   0.00999   0.00423  -0.1149  0.5780  1.0000  -1.1566   0.0000   0.3884
   2.500   0.8190   0.01010   0.00428  -0.1131  0.5690  1.0000  -1.1823   0.0000   0.3826
   2.750   0.8377   0.01022   0.00435  -0.1112  0.5601  1.0000  -1.2177   0.0000   0.3769
   3.000   0.8567   0.01035   0.00443  -0.1094  0.5515  1.0000  -1.2541   0.0000   0.3715
   3.250   0.8759   0.01049   0.00452  -0.1076  0.5430  1.0000  -1.2918   0.0000   0.3664
   3.500   0.8952   0.01063   0.00463  -0.1058  0.5348  1.0000  -1.3298   0.0000   0.3615
   3.750   0.9145   0.01079   0.00473  -0.1041  0.5265  1.0000  -1.3693   0.0000   0.3567
   4.000   0.9332   0.01095   0.00485  -0.1021  0.5176  1.0000  -1.4086   0.0000   0.3521
   4.250   0.9512   0.01110   0.00497  -0.1001  0.5080  1.0000  -1.4478   0.0000   0.3475
   4.500   0.9692   0.01126   0.00509  -0.0980  0.4986  1.0000  -1.4882   0.0000   0.3431
   4.750   0.9877   0.01143   0.00523  -0.0961  0.4901  1.0000  -1.5293   0.0000   0.3389
   5.000   1.0063   0.01161   0.00537  -0.0942  0.4820  1.0000  -1.5715   0.0000   0.3349
   5.250   1.0249   0.01180   0.00552  -0.0923  0.4740  1.0000  -1.6145   0.0000   0.3310
   5.500   1.0429   0.01197   0.00569  -0.0903  0.4656  1.0000  -1.6576   0.0000   0.3272
   5.750   1.0607   0.01216   0.00587  -0.0882  0.4573  1.0000  -1.7017   0.0000   0.3235
   6.000   1.0783   0.01235   0.00605  -0.0862  0.4490  1.0000  -1.7463   0.0000   0.3199
   6.250   1.0954   0.01255   0.00625  -0.0840  0.4407  1.0000  -1.7915   0.0000   0.3164
   6.500   1.1113   0.01275   0.00644  -0.0816  0.4324  1.0000  -1.8366   0.0000   0.3127
   6.750   1.1259   0.01296   0.00663  -0.0789  0.4240  1.0000  -1.8809   0.0000   0.3091
   7.000   1.1404   0.01317   0.00684  -0.0763  0.4154  1.0000  -1.9265   0.0000   0.3055
   7.250   1.1550   0.01340   0.00706  -0.0737  0.4066  1.0000  -1.9725   0.0000   0.3021
   7.500   1.1696   0.01364   0.00730  -0.0712  0.3974  1.0000  -2.0293   0.0000   0.2988
   7.750   1.1843   0.01390   0.00756  -0.0687  0.3879  1.0000  -2.1063   0.0000   0.2956
   8.000   1.1989   0.01419   0.00784  -0.0663  0.3781  1.0000  -2.1852   0.0000   0.2924
   8.250   1.2133   0.01451   0.00815  -0.0638  0.3678  1.0000  -2.2653   0.0000   0.2894
   8.500   1.2273   0.01486   0.00849  -0.0614  0.3574  1.0000  -2.3467   0.0000   0.2865
   8.750   1.2412   0.01525   0.00886  -0.0590  0.3464  1.0000  -2.4287   0.0000   0.2836
   9.000   1.2549   0.01565   0.00926  -0.0567  0.3346  1.0000  -2.5122   0.0000   0.2809
   9.250   1.2673   0.01613   0.00971  -0.0543  0.3224  1.0000  -2.5949   0.0000   0.2781
   9.500   1.2792   0.01665   0.01021  -0.0518  0.3084  1.0000  -2.6773   0.0000   0.2753
   9.750   1.2895   0.01727   0.01078  -0.0492  0.2934  1.0000  -2.7569   0.0000   0.2726
  10.250   1.3091   0.01869   0.01211  -0.0442  0.2636  1.0000  -2.9191   0.0000   0.2673
  10.500   1.3186   0.01949   0.01287  -0.0418  0.2502  1.0000  -3.0005   0.0000   0.2649
  10.750   1.3273   0.02037   0.01371  -0.0394  0.2374  1.0000  -3.0806   0.0000   0.2624
  11.000   1.3363   0.02128   0.01460  -0.0372  0.2252  1.0000  -3.1616   0.0000   0.2601
  11.250   1.3447   0.02228   0.01556  -0.0350  0.2140  1.0000  -3.2432   0.0000   0.2579
  11.500   1.3522   0.02336   0.01662  -0.0329  0.2039  1.0000  -3.3237   0.0000   0.2557
  11.750   1.3605   0.02444   0.01770  -0.0310  0.1945  1.0000  -3.4063   0.0000   0.2537
  12.000   1.3686   0.02559   0.01884  -0.0291  0.1858  1.0000  -3.4885   0.0000   0.2517
  12.250   1.3761   0.02681   0.02007  -0.0274  0.1780  1.0000  -3.5698   0.0000   0.2498
  12.500   1.3832   0.02810   0.02137  -0.0257  0.1708  1.0000  -3.6510   0.0000   0.2480
  12.750   1.3896   0.02949   0.02276  -0.0240  0.1641  1.0000  -3.7319   0.0000   0.2463
  13.000   1.3961   0.03092   0.02421  -0.0226  0.1577  1.0000  -3.8134   0.0000   0.2446
  13.250   1.4029   0.03238   0.02571  -0.0212  0.1515  1.0000  -3.8958   0.0000   0.2431
  13.500   1.4090   0.03395   0.02731  -0.0199  0.1456  1.0000  -3.9762   0.0000   0.2416
  13.750   1.4141   0.03564   0.02904  -0.0187  0.1401  1.0000  -4.0544   0.0000   0.2401
  14.000   1.4179   0.03750   0.03091  -0.0175  0.1348  1.0000  -4.1306   0.0000   0.2387
  14.250   1.4222   0.03938   0.03283  -0.0165  0.1292  1.0000  -4.2082   0.0000   0.2375
  14.500   1.4266   0.04131   0.03482  -0.0157  0.1235  1.0000  -4.2857   0.0000   0.2363
  14.750   1.4299   0.04341   0.03696  -0.0149  0.1179  1.0000  -4.3595   0.0000   0.2351
  15.000   1.4320   0.04566   0.03926  -0.0142  0.1123  1.0000  -4.4304   0.0000   0.2341


