xflr5 v6.10.04

 Calculated polar for: NACA 4415

 1 1 Reynolds number fixed          Mach number fixed         

 xtrf =   1.000 (top)        1.000 (bottom)
 Mach =   0.030     Re =     0.100 e 6     Ncrit =   9.000

  alpha     CL        CD       CDp       Cm    Top Xtr Bot Xtr   Cpmin    Chinge    XCp    
 ------- -------- --------- --------- -------- ------- ------- -------- --------- ---------
 -15.000  -0.2792   0.17273   0.16729  -0.0400  1.0000  0.0922  -1.2872   0.0000   0.0769
 -14.750  -0.2827   0.17020   0.16478  -0.0407  1.0000  0.0933  -1.3272   0.0000   0.0767
 -14.500  -0.2759   0.16753   0.16212  -0.0402  1.0000  0.0953  -1.2976   0.0000   0.0748
 -14.250  -0.2795   0.16517   0.15977  -0.0408  1.0000  0.0980  -1.3338   0.0000   0.0749
 -14.000  -0.2817   0.16234   0.15696  -0.0412  1.0000  0.0993  -1.3617   0.0000   0.0750
 -13.750  -0.2756   0.15965   0.15428  -0.0407  1.0000  0.1015  -1.3347   0.0000   0.0736
 -13.500  -0.2809   0.15713   0.15178  -0.0413  1.0000  0.1042  -1.3765   0.0000   0.0747
 -13.250  -0.2827   0.15414   0.14882  -0.0415  1.0000  0.1055  -1.3977   0.0000   0.0754
 -13.000  -0.2764   0.15146   0.14616  -0.0408  1.0000  0.1080  -1.3684   0.0000   0.0747
 -12.750  -0.2872   0.14897   0.14370  -0.0418  1.0000  0.1109  -1.4371   0.0000   0.0781
 -12.500  -0.2820   0.14584   0.14060  -0.0411  1.0000  0.1125  -1.4198   0.0000   0.0780
 -12.250  -0.2792   0.14325   0.13804  -0.0404  1.0000  0.1153  -1.4097   0.0000   0.0790
 -12.000  -0.2974   0.14080   0.13564  -0.0418  1.0000  0.1179  -1.5074   0.0000   0.0853
 -11.750  -0.2850   0.13767   0.13253  -0.0401  1.0000  0.1198  -1.4492   0.0000   0.0847
 -11.500  -0.2866   0.13522   0.13012  -0.0395  1.0000  0.1233  -1.4553   0.0000   0.0881
 -11.250  -0.3054   0.13251   0.12749  -0.0404  1.0000  0.1253  -1.5465   0.0000   0.0954
 -11.000  -0.2916   0.12986   0.12486  -0.0382  1.0000  0.1279  -1.4745   0.0000   0.0965
 -10.750  -0.3020   0.12748   0.12254  -0.0379  1.0000  0.1314  -1.5161   0.0000   0.1031
 -10.500  -0.3117   0.12466   0.11979  -0.0375  1.0000  0.1331  -1.5570   0.0000   0.1096
 -10.250  -0.3054   0.12248   0.11764  -0.0354  1.0000  0.1363  -1.5173   0.0000   0.1141
 -10.000  -0.3278   0.12015   0.11540  -0.0355  1.0000  0.1396  -1.6028   0.0000   0.1235
  -9.750  -0.3261   0.11752   0.11282  -0.0336  1.0000  0.1414  -1.5844   0.0000   0.1293
  -8.500  -0.6185   0.07000   0.06543  -0.0461  1.0000  0.0821  -3.2935   0.0000   0.1639
  -8.250  -0.6373   0.06596   0.06132  -0.0445  1.0000  0.0817  -3.3640   0.0000   0.1691
  -8.000  -0.6605   0.06048   0.05564  -0.0432  1.0000  0.0809  -3.4851   0.0000   0.1739
  -7.750  -0.6849   0.05347   0.04815  -0.0421  1.0000  0.0801  -3.6572   0.0000   0.1781
  -7.500  -0.6806   0.04459   0.03815  -0.0455  0.9928  0.0816  -3.8196   0.0000   0.1726
  -7.250  -0.6494   0.04238   0.03570  -0.0480  0.9861  0.0852  -3.6985   0.0000   0.1654
  -7.000  -0.6213   0.03972   0.03260  -0.0500  0.9792  0.0896  -3.6082   0.0000   0.1589
  -6.750  -0.5925   0.03771   0.03023  -0.0514  0.9717  0.0949  -3.5045   0.0000   0.1524
  -6.500  -0.5619   0.03625   0.02851  -0.0529  0.9642  0.1011  -3.3804   0.0000   0.1450
  -6.250  -0.5307   0.03506   0.02709  -0.0542  0.9566  0.1084  -3.2468   0.0000   0.1369
  -6.000  -0.4999   0.03385   0.02555  -0.0553  0.9489  0.1172  -3.1194   0.0000   0.1282
  -5.750  -0.4676   0.03302   0.02462  -0.0566  0.9413  0.1264  -2.9759   0.0000   0.1177
  -5.500  -0.4346   0.03240   0.02397  -0.0579  0.9336  0.1367  -2.8252   0.0000   0.1053
  -5.250  -0.4023   0.03163   0.02298  -0.0590  0.9259  0.1487  -2.6855   0.0000   0.0916
  -5.000  -0.3678   0.03115   0.02252  -0.0604  0.9185  0.1605  -2.5257   0.0000   0.0736
  -4.750  -0.3320   0.03053   0.02173  -0.0620  0.9116  0.1739  -2.3772   0.0000   0.0504
  -4.500  -0.3004   0.03011   0.02134  -0.0629  0.9034  0.1858  -2.2311   0.0000   0.0275
  -4.250  -0.2694   0.02966   0.02075  -0.0635  0.8951  0.1989  -2.0936   0.0000   0.0003
  -4.000  -0.2382   0.02922   0.02033  -0.0642  0.8869  0.2110  -1.9553   0.0000  -0.0344
  -3.750  -0.2067   0.02880   0.01989  -0.0649  0.8787  0.2237  -1.8223   0.0000  -0.0798
  -3.500  -0.1750   0.02835   0.01934  -0.0655  0.8707  0.2374  -1.6938   0.0000  -0.1418
  -3.250  -0.1419   0.02789   0.01894  -0.0664  0.8631  0.2508  -1.5628   0.0000  -0.2379
  -3.000  -0.1002   0.02725   0.01827  -0.0687  0.8579  0.2682  -1.4202   0.0000  -0.4611
  -2.750  -0.0702   0.02685   0.01787  -0.0689  0.8495  0.2849  -1.3065   0.0000  -0.7663
  -2.500  -0.0400   0.02642   0.01752  -0.0692  0.8412  0.3026  -1.2013   0.0000  -1.5359
  -2.250  -0.0095   0.02600   0.01715  -0.0695  0.8331  0.3233  -1.1113   0.0000  -7.2942
  -2.000   0.0224   0.02552   0.01675  -0.0700  0.8255  0.3478  -1.0242   0.0000   3.4540
  -1.750   0.0655   0.02466   0.01607  -0.0722  0.8214  0.3809  -0.9245   0.0000   1.3746
  -1.500   0.0941   0.02418   0.01577  -0.0720  0.8132  0.4155  -0.8506   0.0000   1.0291
  -1.250   0.1234   0.02364   0.01549  -0.0719  0.8053  0.4607  -0.7882   0.0000   0.8413
  -1.000   0.1700   0.02250   0.01484  -0.0744  0.8025  0.5499  -0.7177   0.0000   0.6927
  -0.750   0.1987   0.02180   0.01482  -0.0736  0.7944  0.6960  -0.6672   0.0000   0.6235
  -0.500   0.3962   0.02034   0.01375  -0.1031  0.8023  0.9665  -0.7778   0.0000   0.5103
  -0.250   0.4886   0.02001   0.01320  -0.1154  0.7959  1.0000  -0.8374   0.0000   0.4856
   0.000   0.5110   0.01982   0.01287  -0.1146  0.7861  1.0000  -0.8574   0.0000   0.4731
   0.250   0.5349   0.01968   0.01259  -0.1138  0.7765  1.0000  -0.8789   0.0000   0.4612
   0.500   0.5596   0.01960   0.01238  -0.1131  0.7669  1.0000  -0.9015   0.0000   0.4501
   0.750   0.5845   0.01955   0.01221  -0.1124  0.7573  1.0000  -0.9250   0.0000   0.4399
   1.000   0.6095   0.01954   0.01209  -0.1117  0.7478  1.0000  -0.9493   0.0000   0.4304
   1.250   0.6344   0.01956   0.01200  -0.1109  0.7383  1.0000  -0.9746   0.0000   0.4216
   1.500   0.6591   0.01961   0.01196  -0.1101  0.7288  1.0000  -1.0006   0.0000   0.4135
   1.750   0.6836   0.01969   0.01194  -0.1093  0.7193  1.0000  -1.0273   0.0000   0.4059
   2.000   0.7079   0.01979   0.01196  -0.1084  0.7099  1.0000  -1.0546   0.0000   0.3988
   2.250   0.7320   0.01992   0.01201  -0.1075  0.7005  1.0000  -1.0823   0.0000   0.3922
   2.500   0.7559   0.02006   0.01209  -0.1065  0.6911  1.0000  -1.1107   0.0000   0.3859
   2.750   0.7795   0.02023   0.01219  -0.1055  0.6817  1.0000  -1.1439   0.0000   0.3801
   3.000   0.8030   0.02042   0.01232  -0.1045  0.6723  1.0000  -1.1817   0.0000   0.3745
   3.250   0.8263   0.02062   0.01247  -0.1034  0.6629  1.0000  -1.2206   0.0000   0.3692
   3.500   0.8495   0.02083   0.01263  -0.1023  0.6536  1.0000  -1.2604   0.0000   0.3642
   3.750   0.8727   0.02105   0.01281  -0.1012  0.6442  1.0000  -1.3009   0.0000   0.3594
   4.000   0.8957   0.02129   0.01301  -0.1001  0.6349  1.0000  -1.3423   0.0000   0.3549
   4.250   0.9186   0.02153   0.01322  -0.0990  0.6255  1.0000  -1.3845   0.0000   0.3506
   4.500   0.9414   0.02178   0.01344  -0.0978  0.6160  1.0000  -1.4271   0.0000   0.3464
   4.750   0.9641   0.02204   0.01367  -0.0967  0.6066  1.0000  -1.4710   0.0000   0.3424
   5.000   0.9868   0.02230   0.01390  -0.0955  0.5971  1.0000  -1.5153   0.0000   0.3386
   5.250   1.0098   0.02255   0.01413  -0.0944  0.5875  1.0000  -1.5616   0.0000   0.3350
   5.500   1.0335   0.02277   0.01432  -0.0934  0.5776  1.0000  -1.6091   0.0000   0.3315
   5.750   1.0582   0.02294   0.01445  -0.0925  0.5675  1.0000  -1.6599   0.0000   0.3282
   6.000   1.0764   0.02324   0.01476  -0.0905  0.5567  1.0000  -1.7038   0.0000   0.3246
   6.250   1.0948   0.02354   0.01507  -0.0886  0.5458  1.0000  -1.7492   0.0000   0.3211
   6.500   1.1147   0.02382   0.01535  -0.0870  0.5352  1.0000  -1.7977   0.0000   0.3178
   6.750   1.1354   0.02409   0.01562  -0.0855  0.5246  1.0000  -1.8480   0.0000   0.3147
   7.000   1.1567   0.02435   0.01586  -0.0841  0.5140  1.0000  -1.9010   0.0000   0.3117
   7.250   1.1788   0.02459   0.01610  -0.0828  0.5035  1.0000  -1.9564   0.0000   0.3090
   7.500   1.2020   0.02482   0.01629  -0.0817  0.4929  1.0000  -2.0387   0.0000   0.3063
   7.750   1.2182   0.02518   0.01668  -0.0795  0.4818  1.0000  -2.1152   0.0000   0.3033
   8.000   1.2333   0.02555   0.01710  -0.0771  0.4703  1.0000  -2.1928   0.0000   0.3001
   8.250   1.2511   0.02586   0.01741  -0.0752  0.4588  1.0000  -2.2779   0.0000   0.2973
   8.500   1.2721   0.02609   0.01761  -0.0738  0.4473  1.0000  -2.3717   0.0000   0.2948
   8.750   1.2864   0.02646   0.01800  -0.0713  0.4353  1.0000  -2.4539   0.0000   0.2919
   9.000   1.2987   0.02685   0.01843  -0.0685  0.4229  1.0000  -2.5326   0.0000   0.2888
   9.250   1.3175   0.02712   0.01865  -0.0667  0.4106  1.0000  -2.6275   0.0000   0.2863
   9.500   1.3264   0.02758   0.01916  -0.0634  0.3979  1.0000  -2.7024   0.0000   0.2831
   9.750   1.3383   0.02799   0.01955  -0.0606  0.3851  1.0000  -2.7849   0.0000   0.2801
  10.000   1.3497   0.02842   0.01997  -0.0578  0.3724  1.0000  -2.8666   0.0000   0.2772
  10.250   1.3546   0.02897   0.02053  -0.0539  0.3598  1.0000  -2.9359   0.0000   0.2738
  10.500   1.3676   0.02942   0.02090  -0.0514  0.3471  1.0000  -3.0251   0.0000   0.2712
  10.750   1.3684   0.03016   0.02169  -0.0472  0.3347  1.0000  -3.0852   0.0000   0.2676
  11.000   1.3773   0.03077   0.02225  -0.0443  0.3223  1.0000  -3.1653   0.0000   0.2649
  11.250   1.3807   0.03157   0.02305  -0.0408  0.3101  1.0000  -3.2325   0.0000   0.2618
  11.500   1.3842   0.03242   0.02390  -0.0375  0.2982  1.0000  -3.3015   0.0000   0.2589
  11.750   1.3935   0.03318   0.02456  -0.0351  0.2866  1.0000  -3.3863   0.0000   0.2565
  12.000   1.3934   0.03430   0.02574  -0.0317  0.2757  1.0000  -3.4455   0.0000   0.2536
  12.250   1.3967   0.03541   0.02687  -0.0289  0.2652  1.0000  -3.5135   0.0000   0.2511
  12.500   1.4022   0.03652   0.02797  -0.0265  0.2551  1.0000  -3.5872   0.0000   0.2488
  12.750   1.4094   0.03764   0.02905  -0.0244  0.2454  1.0000  -3.6680   0.0000   0.2467
  13.000   1.4161   0.03884   0.03023  -0.0224  0.2361  1.0000  -3.7472   0.0000   0.2447
  13.250   1.4183   0.04027   0.03170  -0.0201  0.2272  1.0000  -3.8132   0.0000   0.2426
  13.500   1.4206   0.04177   0.03324  -0.0179  0.2186  1.0000  -3.8791   0.0000   0.2405
  13.750   1.4227   0.04333   0.03484  -0.0159  0.2103  1.0000  -3.9448   0.0000   0.2386
  14.000   1.4244   0.04498   0.03653  -0.0140  0.2021  1.0000  -4.0103   0.0000   0.2367
  14.250   1.4255   0.04673   0.03831  -0.0122  0.1941  1.0000  -4.0736   0.0000   0.2349
  14.500   1.4261   0.04857   0.04019  -0.0105  0.1862  1.0000  -4.1346   0.0000   0.2332
  14.750   1.4261   0.05051   0.04217  -0.0089  0.1785  1.0000  -4.1929   0.0000   0.2316
  15.000   1.4259   0.05255   0.04424  -0.0075  0.1710  1.0000  -4.2511   0.0000   0.2301


