xflr5 v6.10.04

 Calculated polar for: NACA 4415

 1 1 Reynolds number fixed          Mach number fixed         

 xtrf =   1.000 (top)        1.000 (bottom)
 Mach =   0.030     Re =     0.200 e 6     Ncrit =   9.000

  alpha     CL        CD       CDp       Cm    Top Xtr Bot Xtr   Cpmin    Chinge    XCp    
 ------- -------- --------- --------- -------- ------- ------- -------- --------- ---------
 -12.250  -0.6014   0.07062   0.06667  -0.0747  1.0000  0.0410  -4.8039   0.0000   0.1044
 -12.000  -0.6039   0.06866   0.06476  -0.0738  1.0000  0.0413  -4.7535   0.0000   0.1071
 -11.500  -0.8156   0.05033   0.04568  -0.0739  1.0000  0.0383  -5.8934   0.0000   0.1436
 -11.250  -0.8334   0.04850   0.04376  -0.0697  1.0000  0.0384  -5.9046   0.0000   0.1511
 -11.000  -0.8341   0.04743   0.04272  -0.0667  1.0000  0.0388  -5.8151   0.0000   0.1552
 -10.750  -0.8385   0.04491   0.04001  -0.0651  0.9984  0.0391  -5.7916   0.0000   0.1579
 -10.500  -0.8240   0.04128   0.03597  -0.0674  0.9928  0.0397  -5.7308   0.0000   0.1539
 -10.250  -0.8113   0.03750   0.03155  -0.0689  0.9866  0.0406  -5.6979   0.0000   0.1510
 -10.000  -0.7865   0.03562   0.02952  -0.0701  0.9816  0.0416  -5.5376   0.0000   0.1468
  -9.750  -0.7617   0.03379   0.02744  -0.0712  0.9765  0.0429  -5.3864   0.0000   0.1427
  -9.500  -0.7369   0.03180   0.02512  -0.0721  0.9715  0.0442  -5.2479   0.0000   0.1383
  -9.250  -0.7067   0.03049   0.02368  -0.0735  0.9671  0.0459  -5.0597   0.0000   0.1322
  -9.000  -0.6800   0.02921   0.02226  -0.0741  0.9616  0.0477  -4.8952   0.0000   0.1273
  -8.750  -0.6522   0.02789   0.02069  -0.0747  0.9565  0.0500  -4.7422   0.0000   0.1217
  -8.500  -0.6185   0.02687   0.01962  -0.0763  0.9528  0.0526  -4.5476   0.0000   0.1127
  -8.250  -0.5909   0.02599   0.01872  -0.0767  0.9470  0.0553  -4.3716   0.0000   0.1063
  -8.000  -0.5595   0.02509   0.01776  -0.0778  0.9426  0.0588  -4.1884   0.0000   0.0971
  -7.750  -0.5275   0.02426   0.01686  -0.0789  0.9380  0.0630  -4.0084   0.0000   0.0864
  -7.500  -0.4991   0.02353   0.01605  -0.0792  0.9322  0.0676  -3.8444   0.0000   0.0772
  -7.250  -0.4623   0.02277   0.01528  -0.0811  0.9291  0.0735  -3.6503   0.0000   0.0600
  -7.000  -0.4348   0.02221   0.01472  -0.0812  0.9227  0.0795  -3.4838   0.0000   0.0486
  -6.750  -0.3957   0.02152   0.01398  -0.0834  0.9202  0.0882  -3.2873   0.0000   0.0239
  -6.500  -0.3689   0.02106   0.01353  -0.0833  0.9135  0.0961  -3.1298   0.0000   0.0087
  -6.250  -0.3380   0.02056   0.01298  -0.0839  0.9081  0.1056  -2.9645   0.0000  -0.0141
  -6.000  -0.3014   0.02006   0.01248  -0.0856  0.9045  0.1158  -2.7802   0.0000  -0.0508
  -5.750  -0.2706   0.01962   0.01198  -0.0860  0.8990  0.1256  -2.6170   0.0000  -0.0858
  -5.500  -0.2322   0.01908   0.01148  -0.0880  0.8958  0.1355  -2.4383   0.0000  -0.1484
  -5.250  -0.1963   0.01861   0.01097  -0.0894  0.8917  0.1456  -2.2717   0.0000  -0.2271
  -5.000  -0.1602   0.01815   0.01044  -0.0909  0.8872  0.1560  -2.1086   0.0000  -0.3420
  -4.750  -0.1167   0.01754   0.00990  -0.0938  0.8853  0.1670  -1.9309   0.0000  -0.5857
  -4.500  -0.0883   0.01716   0.00954  -0.0937  0.8781  0.1770  -1.7972   0.0000  -0.8506
  -4.000  -0.0173   0.01620   0.00858  -0.0963  0.8681  0.2009  -1.5103   0.0000  -5.4796
  -3.750   0.0124   0.01580   0.00822  -0.0964  0.8609  0.2126  -1.3876   0.0000   8.2324
  -3.500   0.0454   0.01539   0.00780  -0.0972  0.8545  0.2267  -1.2628   0.0000   2.4446
  -3.250   0.0819   0.01491   0.00738  -0.0987  0.8490  0.2421  -1.1511   0.0000   1.4824
  -3.000   0.1106   0.01458   0.00707  -0.0986  0.8407  0.2580  -1.0636   0.0000   1.1600
  -2.750   0.1395   0.01427   0.00678  -0.0985  0.8322  0.2761  -0.9798   0.0000   0.9694
  -2.500   0.1682   0.01396   0.00651  -0.0984  0.8235  0.2958  -0.8999   0.0000   0.8449
  -2.250   0.1963   0.01365   0.00627  -0.0982  0.8146  0.3174  -0.8246   0.0000   0.7576
  -2.000   0.2237   0.01335   0.00605  -0.0979  0.8053  0.3420  -0.7673   0.0000   0.6930
  -1.750   0.2503   0.01306   0.00584  -0.0974  0.7957  0.3709  -0.7156   0.0000   0.6431
  -1.500   0.2759   0.01277   0.00567  -0.0968  0.7860  0.4069  -0.7074   0.0000   0.6034
  -1.250   0.2998   0.01244   0.00553  -0.0957  0.7761  0.4559  -0.7262   0.0000   0.5710
  -1.000   0.3213   0.01207   0.00546  -0.0942  0.7661  0.5333  -0.7442   0.0000   0.5440
  -0.750   0.3411   0.01171   0.00545  -0.0921  0.7561  0.6401  -0.7617   0.0000   0.5200
  -0.500   0.3645   0.01140   0.00546  -0.0905  0.7463  0.7451  -0.7815   0.0000   0.4976
  -0.250   0.4131   0.01124   0.00553  -0.0939  0.7364  0.8531  -0.8156   0.0000   0.4762
   0.000   0.4847   0.01135   0.00563  -0.1024  0.7255  0.9167  -0.8632   0.0000   0.4595
   0.250   0.5401   0.01152   0.00569  -0.1076  0.7141  0.9469  -0.9029   0.0000   0.4470
   0.500   0.5896   0.01171   0.00575  -0.1117  0.7029  0.9687  -0.9404   0.0000   0.4369
   0.750   0.6424   0.01185   0.00577  -0.1167  0.6916  0.9856  -0.9812   0.0000   0.4287
   1.000   0.7008   0.01192   0.00569  -0.1231  0.6804  0.9982  -1.0274   0.0000   0.4223
   1.250   0.7248   0.01198   0.00566  -0.1225  0.6695  1.0000  -1.0533   0.0000   0.4154
   1.500   0.7427   0.01207   0.00566  -0.1207  0.6589  1.0000  -1.0761   0.0000   0.4084
   1.750   0.7614   0.01218   0.00569  -0.1189  0.6487  1.0000  -1.0999   0.0000   0.4018
   2.000   0.7807   0.01231   0.00573  -0.1172  0.6387  1.0000  -1.1248   0.0000   0.3954
   2.250   0.8004   0.01245   0.00580  -0.1156  0.6290  1.0000  -1.1505   0.0000   0.3894
   2.500   0.8203   0.01260   0.00588  -0.1140  0.6194  1.0000  -1.1785   0.0000   0.3836
   2.750   0.8405   0.01277   0.00598  -0.1124  0.6099  1.0000  -1.2147   0.0000   0.3781
   3.000   0.8608   0.01294   0.00609  -0.1109  0.6006  1.0000  -1.2518   0.0000   0.3728
   3.250   0.8813   0.01312   0.00621  -0.1093  0.5914  1.0000  -1.2903   0.0000   0.3678
   3.500   0.9018   0.01331   0.00634  -0.1078  0.5823  1.0000  -1.3292   0.0000   0.3629
   3.750   0.9224   0.01351   0.00649  -0.1063  0.5734  1.0000  -1.3694   0.0000   0.3583
   4.000   0.9432   0.01371   0.00664  -0.1048  0.5646  1.0000  -1.4104   0.0000   0.3539
   4.250   0.9639   0.01392   0.00680  -0.1033  0.5558  1.0000  -1.4518   0.0000   0.3496
   4.500   0.9841   0.01412   0.00697  -0.1018  0.5468  1.0000  -1.4941   0.0000   0.3455
   4.750   1.0032   0.01432   0.00713  -0.0999  0.5370  1.0000  -1.5358   0.0000   0.3414
   5.000   1.0218   0.01452   0.00730  -0.0980  0.5271  1.0000  -1.5782   0.0000   0.3374
   5.250   1.0406   0.01473   0.00749  -0.0962  0.5175  1.0000  -1.6213   0.0000   0.3335
   5.500   1.0597   0.01495   0.00768  -0.0944  0.5084  1.0000  -1.6657   0.0000   0.3298
   5.750   1.0788   0.01517   0.00789  -0.0926  0.4994  1.0000  -1.7110   0.0000   0.3263
   6.000   1.0977   0.01540   0.00810  -0.0908  0.4906  1.0000  -1.7573   0.0000   0.3228
   6.250   1.1163   0.01564   0.00832  -0.0889  0.4816  1.0000  -1.8040   0.0000   0.3195
   6.500   1.1344   0.01588   0.00855  -0.0870  0.4727  1.0000  -1.8519   0.0000   0.3161
   6.750   1.1520   0.01613   0.00879  -0.0850  0.4636  1.0000  -1.8998   0.0000   0.3129
   7.000   1.1688   0.01638   0.00904  -0.0828  0.4543  1.0000  -1.9482   0.0000   0.3096
   7.250   1.1849   0.01663   0.00930  -0.0805  0.4449  1.0000  -1.9977   0.0000   0.3063
   7.500   1.2001   0.01690   0.00958  -0.0781  0.4353  1.0000  -2.0706   0.0000   0.3031
   7.750   1.2145   0.01717   0.00986  -0.0755  0.4255  1.0000  -2.1473   0.0000   0.2998
   8.000   1.2279   0.01745   0.01016  -0.0728  0.4155  1.0000  -2.2242   0.0000   0.2966
   8.250   1.2392   0.01774   0.01045  -0.0697  0.4054  1.0000  -2.2986   0.0000   0.2931
   8.500   1.2497   0.01804   0.01076  -0.0664  0.3951  1.0000  -2.3734   0.0000   0.2897
   8.750   1.2602   0.01837   0.01109  -0.0632  0.3847  1.0000  -2.4491   0.0000   0.2863
   9.000   1.2711   0.01875   0.01144  -0.0602  0.3740  1.0000  -2.5264   0.0000   0.2831
   9.250   1.2800   0.01916   0.01188  -0.0570  0.3622  1.0000  -2.6015   0.0000   0.2799
   9.500   1.2893   0.01963   0.01235  -0.0539  0.3503  1.0000  -2.6781   0.0000   0.2767
   9.750   1.2986   0.02015   0.01284  -0.0509  0.3385  1.0000  -2.7555   0.0000   0.2737
  10.000   1.3061   0.02074   0.01345  -0.0478  0.3253  1.0000  -2.8293   0.0000   0.2707
  10.250   1.3129   0.02141   0.01408  -0.0447  0.3123  1.0000  -2.9042   0.0000   0.2677
  10.500   1.3186   0.02217   0.01484  -0.0416  0.2980  1.0000  -2.9764   0.0000   0.2648
  10.750   1.3240   0.02302   0.01566  -0.0387  0.2842  1.0000  -3.0484   0.0000   0.2620
  11.000   1.3292   0.02396   0.01657  -0.0359  0.2711  1.0000  -3.1200   0.0000   0.2593
  11.250   1.3348   0.02498   0.01757  -0.0333  0.2586  1.0000  -3.1924   0.0000   0.2568
  11.500   1.3403   0.02607   0.01865  -0.0308  0.2470  1.0000  -3.2665   0.0000   0.2544
  11.750   1.3453   0.02726   0.01980  -0.0285  0.2366  1.0000  -3.3399   0.0000   0.2521
  12.000   1.3509   0.02849   0.02102  -0.0263  0.2264  1.0000  -3.4142   0.0000   0.2500
  12.250   1.3563   0.02978   0.02232  -0.0243  0.2168  1.0000  -3.4882   0.0000   0.2479
  12.500   1.3615   0.03114   0.02369  -0.0224  0.2080  1.0000  -3.5618   0.0000   0.2460
  12.750   1.3664   0.03256   0.02512  -0.0206  0.1998  1.0000  -3.6359   0.0000   0.2441
  13.000   1.3712   0.03406   0.02664  -0.0190  0.1921  1.0000  -3.7104   0.0000   0.2423
  13.250   1.3756   0.03563   0.02822  -0.0174  0.1848  1.0000  -3.7842   0.0000   0.2406
  13.500   1.3796   0.03728   0.02989  -0.0159  0.1779  1.0000  -3.8567   0.0000   0.2390
  13.750   1.3831   0.03902   0.03165  -0.0146  0.1713  1.0000  -3.9279   0.0000   0.2375
  14.000   1.3862   0.04086   0.03350  -0.0134  0.1648  1.0000  -3.9984   0.0000   0.2361
  14.250   1.3889   0.04281   0.03551  -0.0123  0.1582  1.0000  -4.0682   0.0000   0.2347
  14.500   1.3909   0.04487   0.03763  -0.0113  0.1518  1.0000  -4.1358   0.0000   0.2334
  14.750   1.3922   0.04707   0.03988  -0.0104  0.1455  1.0000  -4.2006   0.0000   0.2322
  15.000   1.3927   0.04940   0.04226  -0.0096  0.1394  1.0000  -4.2625   0.0000   0.2311


