xflr5 v6.10.04

 Calculated polar for: NACA 4415

 1 1 Reynolds number fixed          Mach number fixed         

 xtrf =   1.000 (top)        1.000 (bottom)
 Mach =   0.030     Re =     0.150 e 6     Ncrit =   9.000

  alpha     CL        CD       CDp       Cm    Top Xtr Bot Xtr   Cpmin    Chinge    XCp    
 ------- -------- --------- --------- -------- ------- ------- -------- --------- ---------
 -15.000  -0.2901   0.16960   0.16515  -0.0409  1.0000  0.0684  -1.4057   0.0000   0.0792
 -14.750  -0.2830   0.16719   0.16275  -0.0403  1.0000  0.0695  -1.3639   0.0000   0.0777
 -14.500  -0.2826   0.16468   0.16024  -0.0405  1.0000  0.0714  -1.3754   0.0000   0.0770
 -14.250  -0.2908   0.16152   0.15710  -0.0417  1.0000  0.0728  -1.4572   0.0000   0.0775
 -14.000  -0.2831   0.15910   0.15469  -0.0409  1.0000  0.0741  -1.4085   0.0000   0.0763
 -13.750  -0.2840   0.15639   0.15199  -0.0411  1.0000  0.0762  -1.4269   0.0000   0.0763
 -13.500  -0.2933   0.15301   0.14864  -0.0423  1.0000  0.0775  -1.5087   0.0000   0.0777
 -13.250  -0.2852   0.15056   0.14620  -0.0413  1.0000  0.0787  -1.4571   0.0000   0.0772
 -13.000  -0.2860   0.14785   0.14352  -0.0413  1.0000  0.0809  -1.4681   0.0000   0.0780
 -12.750  -0.2975   0.14434   0.14004  -0.0425  1.0000  0.0824  -1.5552   0.0000   0.0807
 -12.500  -0.2884   0.14206   0.13779  -0.0411  1.0000  0.0839  -1.4961   0.0000   0.0810
 -12.250  -0.2922   0.13927   0.13502  -0.0411  1.0000  0.0864  -1.5251   0.0000   0.0835
 -12.000  -0.3050   0.13573   0.13153  -0.0420  1.0000  0.0877  -1.6126   0.0000   0.0877
 -11.750  -0.2965   0.13354   0.12936  -0.0404  1.0000  0.0890  -1.5556   0.0000   0.0895
 -11.500  -0.2998   0.13097   0.12683  -0.0399  1.0000  0.0914  -1.5700   0.0000   0.0935
 -10.500  -0.6303   0.06279   0.05864  -0.0692  1.0000  0.0529  -4.3046   0.0000   0.1242
 -10.250  -0.6640   0.06075   0.05660  -0.0658  1.0000  0.0526  -4.3815   0.0000   0.1360
 -10.000  -0.7005   0.05839   0.05419  -0.0613  1.0000  0.0522  -4.4788   0.0000   0.1485
  -9.750  -0.7393   0.05429   0.04987  -0.0577  1.0000  0.0518  -4.6297   0.0000   0.1588
  -9.500  -0.7649   0.04770   0.04268  -0.0575  0.9967  0.0516  -4.8093   0.0000   0.1621
  -9.250  -0.7613   0.04153   0.03565  -0.0596  0.9893  0.0525  -4.8862   0.0000   0.1589
  -9.000  -0.7382   0.03883   0.03262  -0.0612  0.9834  0.0539  -4.7777   0.0000   0.1544
  -8.750  -0.7152   0.03625   0.02961  -0.0624  0.9773  0.0558  -4.6771   0.0000   0.1502
  -8.500  -0.6868   0.03454   0.02769  -0.0637  0.9718  0.0579  -4.5333   0.0000   0.1446
  -8.250  -0.6587   0.03256   0.02529  -0.0649  0.9665  0.0607  -4.4124   0.0000   0.1388
  -8.000  -0.6307   0.03122   0.02371  -0.0657  0.9603  0.0639  -4.2666   0.0000   0.1332
  -7.750  -0.6009   0.03024   0.02269  -0.0666  0.9542  0.0672  -4.0960   0.0000   0.1264
  -7.500  -0.5709   0.02923   0.02156  -0.0675  0.9482  0.0714  -3.9329   0.0000   0.1190
  -7.250  -0.5383   0.02825   0.02041  -0.0688  0.9429  0.0766  -3.7737   0.0000   0.1094
  -7.000  -0.5052   0.02738   0.01944  -0.0701  0.9375  0.0826  -3.6066   0.0000   0.0983
  -6.750  -0.4756   0.02674   0.01880  -0.0707  0.9308  0.0888  -3.4409   0.0000   0.0883
  -6.500  -0.4447   0.02613   0.01816  -0.0714  0.9245  0.0964  -3.2738   0.0000   0.0760
  -6.250  -0.4067   0.02542   0.01738  -0.0735  0.9204  0.1061  -3.0964   0.0000   0.0556
  -6.000  -0.3781   0.02494   0.01690  -0.0737  0.9132  0.1152  -2.9415   0.0000   0.0410
  -5.750  -0.3484   0.02442   0.01627  -0.0741  0.9064  0.1256  -2.7888   0.0000   0.0229
  -5.500  -0.3079   0.02388   0.01576  -0.0765  0.9030  0.1370  -2.5997   0.0000  -0.0138
  -5.250  -0.2795   0.02345   0.01522  -0.0765  0.8956  0.1475  -2.4565   0.0000  -0.0397
  -5.000  -0.2491   0.02299   0.01479  -0.0770  0.8889  0.1573  -2.3061   0.0000  -0.0758
  -4.750  -0.2078   0.02242   0.01423  -0.0794  0.8856  0.1692  -2.1298   0.0000  -0.1507
  -4.500  -0.1788   0.02201   0.01378  -0.0795  0.8783  0.1801  -1.9900   0.0000  -0.2150
  -4.250  -0.1454   0.02151   0.01328  -0.0803  0.8724  0.1917  -1.8466   0.0000  -0.3258
  -4.000  -0.1053   0.02089   0.01270  -0.0824  0.8686  0.2044  -1.6894   0.0000  -0.5627
  -3.750  -0.0728   0.02041   0.01219  -0.0830  0.8622  0.2172  -1.5567   0.0000  -0.9295
  -3.500  -0.0290   0.01972   0.01157  -0.0858  0.8591  0.2320  -1.4047   0.0000  -2.8031
  -3.250   0.0030   0.01927   0.01111  -0.0863  0.8522  0.2471  -1.2835   0.0000  29.5007
  -3.000   0.0472   0.01859   0.01047  -0.0891  0.8491  0.2662  -1.1566   0.0000   2.1825
  -2.750   0.0770   0.01814   0.01011  -0.0891  0.8414  0.2835  -1.0678   0.0000   1.4338
  -2.500   0.1086   0.01768   0.00971  -0.0895  0.8341  0.3040  -0.9808   0.0000   1.0908
  -2.250   0.1509   0.01698   0.00912  -0.0920  0.8302  0.3308  -0.8832   0.0000   0.8696
  -2.000   0.1797   0.01655   0.00878  -0.0918  0.8217  0.3578  -0.8098   0.0000   0.7684
  -1.750   0.2082   0.01610   0.00848  -0.0917  0.8132  0.3895  -0.7547   0.0000   0.6954
  -1.500   0.2361   0.01564   0.00820  -0.0913  0.8047  0.4299  -0.7029   0.0000   0.6406
  -1.250   0.2624   0.01514   0.00798  -0.0907  0.7959  0.4880  -0.7002   0.0000   0.5980
  -1.000   0.2859   0.01461   0.00786  -0.0893  0.7870  0.5829  -0.7192   0.0000   0.5638
  -0.750   0.3113   0.01410   0.00781  -0.0879  0.7782  0.7132  -0.7397   0.0000   0.5330
  -0.500   0.3760   0.01373   0.00778  -0.0940  0.7708  0.8587  -0.7823   0.0000   0.4998
  -0.250   0.4601   0.01371   0.00769  -0.1044  0.7627  0.9272  -0.8366   0.0000   0.4760
   0.000   0.5218   0.01381   0.00765  -0.1107  0.7527  0.9592  -0.8794   0.0000   0.4605
   0.250   0.5838   0.01388   0.00757  -0.1173  0.7420  0.9822  -0.9236   0.0000   0.4488
   0.500   0.6519   0.01384   0.00738  -0.1255  0.7310  0.9996  -0.9730   0.0000   0.4400
   0.750   0.6720   0.01384   0.00726  -0.1242  0.7201  1.0000  -0.9944   0.0000   0.4319
   1.000   0.6917   0.01387   0.00718  -0.1227  0.7096  1.0000  -1.0164   0.0000   0.4242
   1.250   0.7121   0.01394   0.00713  -0.1213  0.6993  1.0000  -1.0400   0.0000   0.4167
   1.500   0.7322   0.01405   0.00714  -0.1197  0.6890  1.0000  -1.0639   0.0000   0.4097
   1.750   0.7512   0.01419   0.00720  -0.1180  0.6785  1.0000  -1.0877   0.0000   0.4029
   2.000   0.7711   0.01434   0.00727  -0.1164  0.6683  1.0000  -1.1128   0.0000   0.3964
   2.250   0.7916   0.01450   0.00735  -0.1149  0.6583  1.0000  -1.1389   0.0000   0.3903
   2.500   0.8125   0.01467   0.00745  -0.1135  0.6485  1.0000  -1.1670   0.0000   0.3844
   2.750   0.8335   0.01485   0.00756  -0.1120  0.6388  1.0000  -1.2033   0.0000   0.3789
   3.000   0.8547   0.01504   0.00769  -0.1106  0.6293  1.0000  -1.2409   0.0000   0.3736
   3.250   0.8759   0.01524   0.00783  -0.1092  0.6198  1.0000  -1.2795   0.0000   0.3686
   3.500   0.8972   0.01545   0.00798  -0.1079  0.6105  1.0000  -1.3189   0.0000   0.3637
   3.750   0.9185   0.01567   0.00815  -0.1065  0.6012  1.0000  -1.3592   0.0000   0.3591
   4.000   0.9397   0.01589   0.00833  -0.1051  0.5920  1.0000  -1.4004   0.0000   0.3547
   4.250   0.9610   0.01612   0.00851  -0.1037  0.5828  1.0000  -1.4419   0.0000   0.3505
   4.500   0.9822   0.01636   0.00871  -0.1023  0.5737  1.0000  -1.4848   0.0000   0.3464
   4.750   1.0031   0.01660   0.00891  -0.1008  0.5643  1.0000  -1.5278   0.0000   0.3424
   5.000   1.0232   0.01682   0.00911  -0.0992  0.5546  1.0000  -1.5714   0.0000   0.3386
   5.250   1.0429   0.01705   0.00931  -0.0975  0.5445  1.0000  -1.6152   0.0000   0.3347
   5.500   1.0624   0.01727   0.00950  -0.0958  0.5343  1.0000  -1.6600   0.0000   0.3311
   5.750   1.0819   0.01751   0.00972  -0.0941  0.5245  1.0000  -1.7057   0.0000   0.3275
   6.000   1.1014   0.01776   0.00995  -0.0924  0.5149  1.0000  -1.7524   0.0000   0.3241
   6.250   1.1206   0.01802   0.01020  -0.0906  0.5054  1.0000  -1.7997   0.0000   0.3208
   6.500   1.1395   0.01828   0.01045  -0.0888  0.4959  1.0000  -1.8483   0.0000   0.3175
   6.750   1.1581   0.01855   0.01072  -0.0870  0.4863  1.0000  -1.8973   0.0000   0.3143
   7.000   1.1763   0.01882   0.01099  -0.0851  0.4766  1.0000  -1.9472   0.0000   0.3112
   7.250   1.1942   0.01909   0.01126  -0.0831  0.4668  1.0000  -2.0031   0.0000   0.3081
   7.500   1.2117   0.01937   0.01153  -0.0812  0.4569  1.0000  -2.0802   0.0000   0.3051
   7.750   1.2290   0.01965   0.01180  -0.0791  0.4468  1.0000  -2.1621   0.0000   0.3021
   8.000   1.2443   0.01995   0.01211  -0.0767  0.4364  1.0000  -2.2425   0.0000   0.2990
   8.250   1.2569   0.02027   0.01246  -0.0739  0.4256  1.0000  -2.3189   0.0000   0.2958
   8.500   1.2693   0.02059   0.01280  -0.0710  0.4146  1.0000  -2.3975   0.0000   0.2926
   8.750   1.2817   0.02092   0.01313  -0.0682  0.4035  1.0000  -2.4769   0.0000   0.2894
   9.000   1.2937   0.02126   0.01345  -0.0653  0.3925  1.0000  -2.5566   0.0000   0.2863
   9.250   1.3008   0.02164   0.01385  -0.0615  0.3811  1.0000  -2.6284   0.0000   0.2827
   9.500   1.3074   0.02206   0.01429  -0.0578  0.3692  1.0000  -2.6996   0.0000   0.2793
   9.750   1.3160   0.02251   0.01471  -0.0545  0.3574  1.0000  -2.7755   0.0000   0.2761
  10.000   1.3225   0.02305   0.01526  -0.0511  0.3450  1.0000  -2.8470   0.0000   0.2728
  10.250   1.3287   0.02365   0.01585  -0.0477  0.3323  1.0000  -2.9202   0.0000   0.2697
  10.500   1.3347   0.02431   0.01649  -0.0444  0.3196  1.0000  -2.9932   0.0000   0.2666
  10.750   1.3385   0.02507   0.01725  -0.0410  0.3063  1.0000  -3.0615   0.0000   0.2636
  11.000   1.3428   0.02591   0.01806  -0.0379  0.2935  1.0000  -3.1310   0.0000   0.2607
  11.250   1.3462   0.02686   0.01900  -0.0348  0.2807  1.0000  -3.1985   0.0000   0.2578
  11.500   1.3510   0.02787   0.01996  -0.0321  0.2690  1.0000  -3.2710   0.0000   0.2553
  11.750   1.3549   0.02898   0.02109  -0.0294  0.2574  1.0000  -3.3408   0.0000   0.2528
  12.000   1.3597   0.03015   0.02224  -0.0270  0.2469  1.0000  -3.4132   0.0000   0.2505
  12.250   1.3650   0.03136   0.02342  -0.0248  0.2372  1.0000  -3.4869   0.0000   0.2483
  12.500   1.3704   0.03263   0.02466  -0.0228  0.2280  1.0000  -3.5612   0.0000   0.2462
  12.750   1.3748   0.03400   0.02605  -0.0208  0.2190  1.0000  -3.6331   0.0000   0.2442
  13.000   1.3791   0.03543   0.02750  -0.0189  0.2106  1.0000  -3.7061   0.0000   0.2423
  13.250   1.3833   0.03692   0.02901  -0.0171  0.2025  1.0000  -3.7787   0.0000   0.2405
  13.500   1.3873   0.03847   0.03057  -0.0155  0.1949  1.0000  -3.8505   0.0000   0.2388
  13.750   1.3909   0.04010   0.03221  -0.0140  0.1875  1.0000  -3.9215   0.0000   0.2371
  14.000   1.3935   0.04185   0.03400  -0.0125  0.1802  1.0000  -3.9900   0.0000   0.2355
  14.250   1.3948   0.04375   0.03596  -0.0111  0.1731  1.0000  -4.0552   0.0000   0.2340
  14.500   1.3957   0.04576   0.03803  -0.0099  0.1661  1.0000  -4.1184   0.0000   0.2326
  14.750   1.3960   0.04789   0.04021  -0.0088  0.1593  1.0000  -4.1793   0.0000   0.2312
  15.000   1.3958   0.05014   0.04251  -0.0078  0.1525  1.0000  -4.2379   0.0000   0.2300


